/*--------------------------------*- C++ -*----------------------------------*\ 
| =========                 |                                                 | 
| \      /  F ield         | OpenFOAM: The Open Source CFD Toolbox           | 
|  \    /   O peration     | Version:  5                                     | 
|   \  /    A nd           | Web:      www.OpenFOAM.org                      | 
|    \/     M anipulation  |                                                 | 
\*---------------------------------------------------------------------------*/ 

FoamFile 
{ 
    version     2.0; 
    format      ascii; 
    class       dictionary; 
    object      blockMeshDict;; 
} 
// * * * * * * * * * * * * * * * * * * * * * * * * * * * * * * * * * * * * * // 

convertToMeters 1; 

vertices 
( 
    (-3.00000000 0.00000000 0.00000000) 
    (0.00000000 0.00000000 0.00000000) 
    (0.25263158 0.05947166 0.00000000) 
    (0.25263158 3.00000000 0.00000000) 
    (1.00000000 3.00000000 0.00000000) 
    (1.00000000 0.00000000 0.00000000) 
    (7.00000000 3.00000000 0.00000000) 
    (7.00000000 0.00000000 0.00000000) 
    (7.00000000 -3.00000000 0.00000000) 
    (1.00000000 -3.00000000 0.00000000) 
    (0.25263158 -3.00000000 0.00000000) 
    (0.25263158 -0.05947166 0.00000000) 
    (-3.00000000 0.00000000 0.10000000) 
    (0.00000000 0.00000000 0.10000000) 
    (0.25263158 0.05947166 0.10000000) 
    (0.25263158 3.00000000 0.10000000) 
    (1.00000000 3.00000000 0.10000000) 
    (1.00000000 0.00000000 0.10000000) 
    (7.00000000 3.00000000 0.10000000) 
    (7.00000000 0.00000000 0.10000000) 
    (7.00000000 -3.00000000 0.10000000) 
    (1.00000000 -3.00000000 0.10000000) 
    (0.25263158 -3.00000000 0.10000000) 
    (0.25263158 -0.05947166 0.10000000) 
); 

blocks 
( 
    hex (1 2 3 0 13 14 15 12) (30 30 1) simpleGrading
    ( 
     ( 
     (1.000 1.000 1.000) 
     (0.000 0.000 1.000) 
     ) 
    1.000 
    1.000 
    ) 
    hex (2 5 4 3 14 17 16 15) (10 30 1) simpleGrading
    ( 
    1.000 
    1.000 
    1.000 
    ) 
    hex (5 7 6 4 17 19 18 16) (70 30 1) simpleGrading
    ( 
    1.000 
    1.000 
    1.000 
    ) 
    hex (13 23 22 12 1 11 10 0) (30 30 1) simpleGrading
    ( 
    1.000 
    1.000 
    1.000 
    ) 
    hex (23 17 21 22 11 5 9 10) (10 30 1) simpleGrading
    ( 
    1.000 
    1.000 
    1.000 
    ) 
    hex (17 19 20 21 5 7 8 9) (70 30 1) simpleGrading
    ( 
    1.000 
    1.000 
    1.000 
    ) 
); 

edges 
( 
); 

boundary 
( 
 
); 
