/*--------------------------------*- C++ -*----------------------------------*\ 
| =========                 |                                                 | 
| \      /  F ield         | OpenFOAM: The Open Source CFD Toolbox           | 
|  \    /   O peration     | Version:  5                                     | 
|   \  /    A nd           | Web:      www.OpenFOAM.org                      | 
|    \/     M anipulation  |                                                 | 
\*---------------------------------------------------------------------------*/ 

FoamFile 
{ 
    version     2.0; 
    format      ascii; 
    class       dictionary; 
    object      blockMeshDict;; 
} 
// * * * * * * * * * * * * * * * * * * * * * * * * * * * * * * * * * * * * * // 

convertToMeters 1; 

vertices 
( 
    (-3.00000000 0.00000000 0.00000000) 
    (0.00000000 0.00000000 0.00000000) 
    (0.25000000 0.05940741 0.00000000) 
    (0.25000000 3.00000000 0.00000000) 
    (1.00000000 3.00000000 0.00000000) 
    (1.00000000 0.00000000 0.00000000) 
    (7.00000000 3.00000000 0.00000000) 
    (7.00000000 0.00000000 0.00000000) 
    (7.00000000 -3.00000000 0.00000000) 
    (1.00000000 -3.00000000 0.00000000) 
    (0.25000000 -3.00000000 0.00000000) 
    (0.25000000 -0.05940741 0.00000000) 
    (-3.00000000 0.00000000 0.10000000) 
    (0.00000000 0.00000000 0.10000000) 
    (0.25000000 0.05940741 0.10000000) 
    (0.25000000 3.00000000 0.10000000) 
    (1.00000000 3.00000000 0.10000000) 
    (1.00000000 0.00000000 0.10000000) 
    (7.00000000 3.00000000 0.10000000) 
    (7.00000000 0.00000000 0.10000000) 
    (7.00000000 -3.00000000 0.10000000) 
    (1.00000000 -3.00000000 0.10000000) 
    (0.25000000 -3.00000000 0.10000000) 
    (0.25000000 -0.05940741 0.10000000) 
); 

blocks 
( 
    hex (1 2 3 0 13 14 15 12) (50 50 1) simpleGrading
    ( 
     ( 
     (0.100 0.100 1.000) 
     (0.150 0.150 1.000) 
     ) 
     ( 
     (0.022 0.300 49.276) 
     (0.978 0.700 1.000) 
     ) 
    1.000 
    ) 
    hex (2 5 4 3 14 17 16 15) (20 50 1) simpleGrading
    ( 
     ( 
     (0.400 0.400 1.000) 
     (0.350 0.350 1.000) 
     ) 
     ( 
     (0.022 0.300 49.276) 
     (0.978 0.700 1.000) 
     ) 
    1.000 
    ) 
    hex (5 7 6 4 17 19 18 16) (100 50 1) simpleGrading
    ( 
    1.000 
     ( 
     (0.022 0.300 49.276) 
     (0.978 0.700 1.000) 
     ) 
    1.000 
    ) 
    hex (13 23 22 12 1 11 10 0) (50 50 1) simpleGrading
    ( 
     ( 
     (0.100 0.100 1.000) 
     (0.150 0.150 1.000) 
     ) 
     ( 
     (0.022 0.300 49.276) 
     (0.978 0.700 1.000) 
     ) 
    1.000 
    ) 
    hex (23 17 21 22 11 5 9 10) (20 50 1) simpleGrading
    ( 
     ( 
     (0.400 0.400 1.000) 
     (0.350 0.350 1.000) 
     ) 
     ( 
     (0.022 0.300 49.276) 
     (0.978 0.700 1.000) 
     ) 
    1.000 
    ) 
    hex (17 19 20 21 5 7 8 9) (100 50 1) simpleGrading
    ( 
    1.000 
     ( 
     (0.022 0.300 49.276) 
     (0.978 0.700 1.000) 
     ) 
    1.000 
    ) 
); 

edges 
( 
    arc 0 3   (-2.12132034 2.12132034 0.00000000) 
    arc 12 15 (-2.12132034 2.12132034 0.10000000) 
    arc 0 10  (-2.12132034 -2.12132034 0.00000000) 
    arc 12 22 (-2.12132034 -2.12132034 0.10000000) 
    spline 1 11 ( 
        (0.00000000 -0.00000000 0.00000000) 
        (0.01428571 -0.02016419 0.00000000) 
        (0.02857143 -0.02778083 0.00000000) 
        (0.04285714 -0.03326380 0.00000000) 
        (0.05714286 -0.03760540 0.00000000) 
        (0.07142857 -0.04119354 0.00000000) 
        (0.08571429 -0.04422791 0.00000000) 
        (0.10000000 -0.04682744 0.00000000) 
        (0.11363636 -0.04897571 0.00000000) 
        (0.12727273 -0.05084807 0.00000000) 
        (0.14090909 -0.05248102 0.00000000) 
        (0.15454545 -0.05390263 0.00000000) 
        (0.16818182 -0.05513530 0.00000000) 
        (0.18181818 -0.05619705 0.00000000) 
        (0.19545455 -0.05710338 0.00000000) 
        (0.20909091 -0.05786723 0.00000000) 
        (0.22272727 -0.05849968 0.00000000) 
        (0.23636364 -0.05901030 0.00000000) 
        ) 
    spline 1 2 ( 
        (0.00000000 0.00000000 0.00000000) 
        (0.01428571 0.02016419 0.00000000) 
        (0.02857143 0.02778083 0.00000000) 
        (0.04285714 0.03326380 0.00000000) 
        (0.05714286 0.03760540 0.00000000) 
        (0.07142857 0.04119354 0.00000000) 
        (0.08571429 0.04422791 0.00000000) 
        (0.10000000 0.04682744 0.00000000) 
        (0.11363636 0.04897571 0.00000000) 
        (0.12727273 0.05084807 0.00000000) 
        (0.14090909 0.05248102 0.00000000) 
        (0.15454545 0.05390263 0.00000000) 
        (0.16818182 0.05513530 0.00000000) 
        (0.18181818 0.05619705 0.00000000) 
        (0.19545455 0.05710338 0.00000000) 
        (0.20909091 0.05786723 0.00000000) 
        (0.22272727 0.05849968 0.00000000) 
        (0.23636364 0.05901030 0.00000000) 
        ) 
    spline 11 5 ( 
        (0.25000000 -0.05940741 0.00000000) 
        (0.26428571 -0.05971015 0.00000000) 
        (0.27857143 -0.05990424 0.00000000) 
        (0.29285714 -0.05999682 0.00000000) 
        (0.30714286 -0.05999407 0.00000000) 
        (0.32142857 -0.05990145 0.00000000) 
        (0.33571429 -0.05972426 0.00000000) 
        (0.35000000 -0.05946723 0.00000000) 
        (0.36428571 -0.05913459 0.00000000) 
        (0.37857143 -0.05873033 0.00000000) 
        (0.39285714 -0.05825824 0.00000000) 
        (0.40714286 -0.05772169 0.00000000) 
        (0.42142857 -0.05712375 0.00000000) 
        (0.43571429 -0.05646751 0.00000000) 
        (0.45000000 -0.05575569 0.00000000) 
        (0.46428571 -0.05499073 0.00000000) 
        (0.47857143 -0.05417511 0.00000000) 
        (0.49285714 -0.05331105 0.00000000) 
        (0.50714286 -0.05240054 0.00000000) 
        (0.52142857 -0.05144551 0.00000000) 
        (0.53571429 -0.05044778 0.00000000) 
        (0.55000000 -0.04940897 0.00000000) 
        (0.56428571 -0.04833054 0.00000000) 
        (0.57857143 -0.04721398 0.00000000) 
        (0.59285714 -0.04606056 0.00000000) 
        (0.60714286 -0.04487140 0.00000000) 
        (0.62142857 -0.04364763 0.00000000) 
        (0.63571429 -0.04239023 0.00000000) 
        (0.65000000 -0.04110003 0.00000000) 
        (0.66458333 -0.03974993 0.00000000) 
        (0.67916667 -0.03836721 0.00000000) 
        (0.69375000 -0.03695248 0.00000000) 
        (0.70833333 -0.03550628 0.00000000) 
        (0.72291667 -0.03402905 0.00000000) 
        (0.73750000 -0.03252112 0.00000000) 
        (0.75208333 -0.03098274 0.00000000) 
        (0.76666667 -0.02941407 0.00000000) 
        (0.78125000 -0.02781520 0.00000000) 
        (0.79583333 -0.02618610 0.00000000) 
        (0.81041667 -0.02452667 0.00000000) 
        (0.82500000 -0.02283672 0.00000000) 
        (0.83958333 -0.02111600 0.00000000) 
        (0.85416667 -0.01936415 0.00000000) 
        (0.86875000 -0.01758075 0.00000000) 
        (0.88333333 -0.01576529 0.00000000) 
        (0.89791667 -0.01391717 0.00000000) 
        (0.91250000 -0.01203573 0.00000000) 
        (0.92708333 -0.01012022 0.00000000) 
        (0.94166667 -0.00816981 0.00000000) 
        (0.95625000 -0.00618361 0.00000000) 
        (0.97083333 -0.00416062 0.00000000) 
        (0.98541667 -0.00209979 0.00000000) 
        (1.00000000 0.00000000 0.00000000) 
        ) 
    spline 2 5 ( 
        (0.25000000 0.05940741 0.00000000) 
        (0.26428571 0.05971015 0.00000000) 
        (0.27857143 0.05990424 0.00000000) 
        (0.29285714 0.05999682 0.00000000) 
        (0.30714286 0.05999407 0.00000000) 
        (0.32142857 0.05990145 0.00000000) 
        (0.33571429 0.05972426 0.00000000) 
        (0.35000000 0.05946723 0.00000000) 
        (0.36428571 0.05913459 0.00000000) 
        (0.37857143 0.05873033 0.00000000) 
        (0.39285714 0.05825824 0.00000000) 
        (0.40714286 0.05772169 0.00000000) 
        (0.42142857 0.05712375 0.00000000) 
        (0.43571429 0.05646751 0.00000000) 
        (0.45000000 0.05575569 0.00000000) 
        (0.46428571 0.05499073 0.00000000) 
        (0.47857143 0.05417511 0.00000000) 
        (0.49285714 0.05331105 0.00000000) 
        (0.50714286 0.05240054 0.00000000) 
        (0.52142857 0.05144551 0.00000000) 
        (0.53571429 0.05044778 0.00000000) 
        (0.55000000 0.04940897 0.00000000) 
        (0.56428571 0.04833054 0.00000000) 
        (0.57857143 0.04721398 0.00000000) 
        (0.59285714 0.04606056 0.00000000) 
        (0.60714286 0.04487140 0.00000000) 
        (0.62142857 0.04364763 0.00000000) 
        (0.63571429 0.04239023 0.00000000) 
        (0.65000000 0.04110003 0.00000000) 
        (0.66458333 0.03974993 0.00000000) 
        (0.67916667 0.03836721 0.00000000) 
        (0.69375000 0.03695248 0.00000000) 
        (0.70833333 0.03550628 0.00000000) 
        (0.72291667 0.03402905 0.00000000) 
        (0.73750000 0.03252112 0.00000000) 
        (0.75208333 0.03098274 0.00000000) 
        (0.76666667 0.02941407 0.00000000) 
        (0.78125000 0.02781520 0.00000000) 
        (0.79583333 0.02618610 0.00000000) 
        (0.81041667 0.02452667 0.00000000) 
        (0.82500000 0.02283672 0.00000000) 
        (0.83958333 0.02111600 0.00000000) 
        (0.85416667 0.01936415 0.00000000) 
        (0.86875000 0.01758075 0.00000000) 
        (0.88333333 0.01576529 0.00000000) 
        (0.89791667 0.01391717 0.00000000) 
        (0.91250000 0.01203573 0.00000000) 
        (0.92708333 0.01012022 0.00000000) 
        (0.94166667 0.00816981 0.00000000) 
        (0.95625000 0.00618361 0.00000000) 
        (0.97083333 0.00416062 0.00000000) 
        (0.98541667 0.00209979 0.00000000) 
        (1.00000000 -0.00000000 0.00000000) 
        ) 
    spline 13 23 ( 
        (0.00000000 -0.00000000 0.10000000) 
        (0.01428571 -0.02016419 0.10000000) 
        (0.02857143 -0.02778083 0.10000000) 
        (0.04285714 -0.03326380 0.10000000) 
        (0.05714286 -0.03760540 0.10000000) 
        (0.07142857 -0.04119354 0.10000000) 
        (0.08571429 -0.04422791 0.10000000) 
        (0.10000000 -0.04682744 0.10000000) 
        (0.11363636 -0.04897571 0.10000000) 
        (0.12727273 -0.05084807 0.10000000) 
        (0.14090909 -0.05248102 0.10000000) 
        (0.15454545 -0.05390263 0.10000000) 
        (0.16818182 -0.05513530 0.10000000) 
        (0.18181818 -0.05619705 0.10000000) 
        (0.19545455 -0.05710338 0.10000000) 
        (0.20909091 -0.05786723 0.10000000) 
        (0.22272727 -0.05849968 0.10000000) 
        (0.23636364 -0.05901030 0.10000000) 
        ) 
    spline 13 14 ( 
        (0.00000000 0.00000000 0.10000000) 
        (0.01428571 0.02016419 0.10000000) 
        (0.02857143 0.02778083 0.10000000) 
        (0.04285714 0.03326380 0.10000000) 
        (0.05714286 0.03760540 0.10000000) 
        (0.07142857 0.04119354 0.10000000) 
        (0.08571429 0.04422791 0.10000000) 
        (0.10000000 0.04682744 0.10000000) 
        (0.11363636 0.04897571 0.10000000) 
        (0.12727273 0.05084807 0.10000000) 
        (0.14090909 0.05248102 0.10000000) 
        (0.15454545 0.05390263 0.10000000) 
        (0.16818182 0.05513530 0.10000000) 
        (0.18181818 0.05619705 0.10000000) 
        (0.19545455 0.05710338 0.10000000) 
        (0.20909091 0.05786723 0.10000000) 
        (0.22272727 0.05849968 0.10000000) 
        (0.23636364 0.05901030 0.10000000) 
        ) 
    spline 23 17 ( 
        (0.25000000 -0.05940741 0.10000000) 
        (0.26428571 -0.05971015 0.10000000) 
        (0.27857143 -0.05990424 0.10000000) 
        (0.29285714 -0.05999682 0.10000000) 
        (0.30714286 -0.05999407 0.10000000) 
        (0.32142857 -0.05990145 0.10000000) 
        (0.33571429 -0.05972426 0.10000000) 
        (0.35000000 -0.05946723 0.10000000) 
        (0.36428571 -0.05913459 0.10000000) 
        (0.37857143 -0.05873033 0.10000000) 
        (0.39285714 -0.05825824 0.10000000) 
        (0.40714286 -0.05772169 0.10000000) 
        (0.42142857 -0.05712375 0.10000000) 
        (0.43571429 -0.05646751 0.10000000) 
        (0.45000000 -0.05575569 0.10000000) 
        (0.46428571 -0.05499073 0.10000000) 
        (0.47857143 -0.05417511 0.10000000) 
        (0.49285714 -0.05331105 0.10000000) 
        (0.50714286 -0.05240054 0.10000000) 
        (0.52142857 -0.05144551 0.10000000) 
        (0.53571429 -0.05044778 0.10000000) 
        (0.55000000 -0.04940897 0.10000000) 
        (0.56428571 -0.04833054 0.10000000) 
        (0.57857143 -0.04721398 0.10000000) 
        (0.59285714 -0.04606056 0.10000000) 
        (0.60714286 -0.04487140 0.10000000) 
        (0.62142857 -0.04364763 0.10000000) 
        (0.63571429 -0.04239023 0.10000000) 
        (0.65000000 -0.04110003 0.10000000) 
        (0.66458333 -0.03974993 0.10000000) 
        (0.67916667 -0.03836721 0.10000000) 
        (0.69375000 -0.03695248 0.10000000) 
        (0.70833333 -0.03550628 0.10000000) 
        (0.72291667 -0.03402905 0.10000000) 
        (0.73750000 -0.03252112 0.10000000) 
        (0.75208333 -0.03098274 0.10000000) 
        (0.76666667 -0.02941407 0.10000000) 
        (0.78125000 -0.02781520 0.10000000) 
        (0.79583333 -0.02618610 0.10000000) 
        (0.81041667 -0.02452667 0.10000000) 
        (0.82500000 -0.02283672 0.10000000) 
        (0.83958333 -0.02111600 0.10000000) 
        (0.85416667 -0.01936415 0.10000000) 
        (0.86875000 -0.01758075 0.10000000) 
        (0.88333333 -0.01576529 0.10000000) 
        (0.89791667 -0.01391717 0.10000000) 
        (0.91250000 -0.01203573 0.10000000) 
        (0.92708333 -0.01012022 0.10000000) 
        (0.94166667 -0.00816981 0.10000000) 
        (0.95625000 -0.00618361 0.10000000) 
        (0.97083333 -0.00416062 0.10000000) 
        (0.98541667 -0.00209979 0.10000000) 
        (1.00000000 0.00000000 0.10000000) 
        ) 
    spline 14 17 ( 
        (0.25000000 0.05940741 0.10000000) 
        (0.26428571 0.05971015 0.10000000) 
        (0.27857143 0.05990424 0.10000000) 
        (0.29285714 0.05999682 0.10000000) 
        (0.30714286 0.05999407 0.10000000) 
        (0.32142857 0.05990145 0.10000000) 
        (0.33571429 0.05972426 0.10000000) 
        (0.35000000 0.05946723 0.10000000) 
        (0.36428571 0.05913459 0.10000000) 
        (0.37857143 0.05873033 0.10000000) 
        (0.39285714 0.05825824 0.10000000) 
        (0.40714286 0.05772169 0.10000000) 
        (0.42142857 0.05712375 0.10000000) 
        (0.43571429 0.05646751 0.10000000) 
        (0.45000000 0.05575569 0.10000000) 
        (0.46428571 0.05499073 0.10000000) 
        (0.47857143 0.05417511 0.10000000) 
        (0.49285714 0.05331105 0.10000000) 
        (0.50714286 0.05240054 0.10000000) 
        (0.52142857 0.05144551 0.10000000) 
        (0.53571429 0.05044778 0.10000000) 
        (0.55000000 0.04940897 0.10000000) 
        (0.56428571 0.04833054 0.10000000) 
        (0.57857143 0.04721398 0.10000000) 
        (0.59285714 0.04606056 0.10000000) 
        (0.60714286 0.04487140 0.10000000) 
        (0.62142857 0.04364763 0.10000000) 
        (0.63571429 0.04239023 0.10000000) 
        (0.65000000 0.04110003 0.10000000) 
        (0.66458333 0.03974993 0.10000000) 
        (0.67916667 0.03836721 0.10000000) 
        (0.69375000 0.03695248 0.10000000) 
        (0.70833333 0.03550628 0.10000000) 
        (0.72291667 0.03402905 0.10000000) 
        (0.73750000 0.03252112 0.10000000) 
        (0.75208333 0.03098274 0.10000000) 
        (0.76666667 0.02941407 0.10000000) 
        (0.78125000 0.02781520 0.10000000) 
        (0.79583333 0.02618610 0.10000000) 
        (0.81041667 0.02452667 0.10000000) 
        (0.82500000 0.02283672 0.10000000) 
        (0.83958333 0.02111600 0.10000000) 
        (0.85416667 0.01936415 0.10000000) 
        (0.86875000 0.01758075 0.10000000) 
        (0.88333333 0.01576529 0.10000000) 
        (0.89791667 0.01391717 0.10000000) 
        (0.91250000 0.01203573 0.10000000) 
        (0.92708333 0.01012022 0.10000000) 
        (0.94166667 0.00816981 0.10000000) 
        (0.95625000 0.00618361 0.10000000) 
        (0.97083333 0.00416062 0.10000000) 
        (0.98541667 0.00209979 0.10000000) 
        (1.00000000 -0.00000000 0.10000000) 
        ) 
); 

boundary 
( 
    inlet 
    { 
        type patch; 
        faces 
        ( 
            (3 15 12 0) 
            (0 12 22 10) 
            (10 22 21 9) 
            (9 21 20 8) 
        ); 
    } 
    outlet 
    { 
        type patch; 
        faces 
        ( 
            (15 3 4 16) 
            (16 4 6 18) 
            (18 6 7 19) 
            (19 7 8 20) 
        ); 
    } 
    airfoil 
    { 
        type patch; 
        faces 
        ( 
            (2 14 17 5) 
            (5 17 23 11) 
            (13 1 11 23) 
            (14 2 1 13) 
        ); 
    } 
    frontAndBack 
    { 
        type empty; 
        faces 
        ( 
            (15 14 13 12) 
            (15 16 17 14) 
            (16 18 19 17) 
            (17 19 20 21) 
            (23 17 21 22) 
            (12 13 23 22) 
            (2 3 0 1) 
            (4 3 2 5) 
            (6 4 7 5) 
            (1 0 10 11) 
            (11 10 9 5) 
            (5 9 8 7) 
        ); 
    } 
); 
