/*--------------------------------*- C++ -*----------------------------------*\ 
| =========                 |                                                 | 
| \      /  F ield         | OpenFOAM: The Open Source CFD Toolbox           | 
|  \    /   O peration     | Version:  5                                     | 
|   \  /    A nd           | Web:      www.OpenFOAM.org                      | 
|    \/     M anipulation  |                                                 | 
\*---------------------------------------------------------------------------*/ 

FoamFile 
{ 
    version     2.0; 
    format      ascii; 
    class       dictionary; 
    object      blockMeshDict;; 
} 
// * * * * * * * * * * * * * * * * * * * * * * * * * * * * * * * * * * * * * // 

convertToMeters 1; 

vertices 
( 
    (-3.00000000 0.00000000 0.00000000) 
    (0.00000000 0.00000000 0.00000000) 
    (0.25000000 0.06676580 0.00000000) 
    (0.25000000 3.00000000 0.00000000) 
    (1.00000000 3.00000000 0.00000000) 
    (1.00000000 0.00000000 0.00000000) 
    (7.00000000 3.00000000 0.00000000) 
    (7.00000000 0.00000000 0.00000000) 
    (7.00000000 -3.00000000 0.00000000) 
    (1.00000000 -3.00000000 0.00000000) 
    (0.25000000 -3.00000000 0.00000000) 
    (0.25000000 -0.03231377 0.00000000) 
    (-3.00000000 0.00000000 0.10000000) 
    (0.00000000 0.00000000 0.10000000) 
    (0.25000000 0.06676580 0.10000000) 
    (0.25000000 3.00000000 0.10000000) 
    (1.00000000 3.00000000 0.10000000) 
    (1.00000000 0.00000000 0.10000000) 
    (7.00000000 3.00000000 0.10000000) 
    (7.00000000 0.00000000 0.10000000) 
    (7.00000000 -3.00000000 0.10000000) 
    (1.00000000 -3.00000000 0.10000000) 
    (0.25000000 -3.00000000 0.10000000) 
    (0.25000000 -0.03231377 0.10000000) 
); 

blocks 
( 
    hex (1 2 3 0 13 14 15 12) (60 40 1) simpleGrading
    ( 
     ( 
     (0.100 0.180 3.000) 
     (0.150 0.120 1.500) 
     ) 
     ( 
     (0.022 0.375 49.276) 
     (0.978 0.625 30.000) 
     ) 
    1.000 
    ) 
    hex (2 5 4 3 14 17 16 15) (50 40 1) simpleGrading
    ( 
     ( 
     (0.375 0.400 1.800) 
     (0.375 0.300 0.800) 
     ) 
     ( 
     (0.022 0.375 49.276) 
     (0.978 0.625 30.000) 
     ) 
    1.000 
    ) 
    hex (5 7 6 4 17 19 18 16) (350 40 1) simpleGrading
    ( 
    2.000 
     ( 
     (0.022 0.375 49.276) 
     (0.978 0.625 30.000) 
     ) 
    1.000 
    ) 
    hex (13 23 22 12 1 11 10 0) (60 40 1) simpleGrading
    ( 
     ( 
     (0.100 0.180 3.000) 
     (0.150 0.120 1.500) 
     ) 
     ( 
     (0.022 0.375 49.276) 
     (0.978 0.625 30.000) 
     ) 
    1.000 
    ) 
    hex (23 17 21 22 11 5 9 10) (50 40 1) simpleGrading
    ( 
     ( 
     (0.375 0.400 1.800) 
     (0.375 0.300 0.800) 
     ) 
     ( 
     (0.022 0.375 49.276) 
     (0.978 0.625 30.000) 
     ) 
    1.000 
    ) 
    hex (17 19 20 21 5 7 8 9) (350 40 1) simpleGrading
    ( 
    2.000 
     ( 
     (0.022 0.375 49.276) 
     (0.978 0.625 30.000) 
     ) 
    1.000 
    ) 
); 

edges 
( 
    arc 0 3   (-2.12132034 2.12132034 0.00000000) 
    arc 12 15 (-2.12132034 2.12132034 0.10000000) 
    arc 0 10  (-2.12132034 -2.12132034 0.00000000) 
    arc 12 22 (-2.12132034 -2.12132034 0.10000000) 
    spline 1 11 ( 
        (0.00000000 0.00000000 0.00000000) 
        (0.00027729 -0.00158387 0.00000000) 
        (0.00055613 -0.00251647 0.00000000) 
        (0.00083653 -0.00324479 0.00000000) 
        (0.00111849 -0.00386148 0.00000000) 
        (0.00140204 -0.00440519 0.00000000) 
        (0.00168717 -0.00489642 0.00000000) 
        (0.00197389 -0.00534762 0.00000000) 
        (0.00226222 -0.00576698 0.00000000) 
        (0.00255216 -0.00616027 0.00000000) 
        (0.00284372 -0.00653168 0.00000000) 
        (0.00313691 -0.00688444 0.00000000) 
        (0.00343174 -0.00722102 0.00000000) 
        (0.00372822 -0.00754341 0.00000000) 
        (0.00402636 -0.00785324 0.00000000) 
        (0.00432616 -0.00815183 0.00000000) 
        (0.00462764 -0.00844031 0.00000000) 
        (0.00493081 -0.00871962 0.00000000) 
        (0.00523567 -0.00899130 0.00000000) 
        (0.00554224 -0.00925616 0.00000000) 
        (0.00585052 -0.00951439 0.00000000) 
        (0.00616053 -0.00976622 0.00000000) 
        (0.00647227 -0.01001184 0.00000000) 
        (0.00678575 -0.01025150 0.00000000) 
        (0.00710099 -0.01048543 0.00000000) 
        (0.00741799 -0.01071389 0.00000000) 
        (0.00773676 -0.01093712 0.00000000) 
        (0.00805732 -0.01115541 0.00000000) 
        (0.00837966 -0.01136904 0.00000000) 
        (0.00870381 -0.01157829 0.00000000) 
        (0.00902978 -0.01178348 0.00000000) 
        (0.00935756 -0.01198493 0.00000000) 
        (0.00968718 -0.01218295 0.00000000) 
        (0.01001864 -0.01237790 0.00000000) 
        (0.01035196 -0.01257013 0.00000000) 
        (0.01068714 -0.01275993 0.00000000) 
        (0.01102419 -0.01294738 0.00000000) 
        (0.01136313 -0.01313250 0.00000000) 
        (0.01170397 -0.01331534 0.00000000) 
        (0.01204671 -0.01349594 0.00000000) 
        (0.01239136 -0.01367433 0.00000000) 
        (0.01273795 -0.01385055 0.00000000) 
        (0.01308647 -0.01402466 0.00000000) 
        (0.01343694 -0.01419670 0.00000000) 
        (0.01378938 -0.01436671 0.00000000) 
        (0.01414378 -0.01453476 0.00000000) 
        (0.01450016 -0.01470090 0.00000000) 
        (0.01485854 -0.01486518 0.00000000) 
        (0.01521892 -0.01502767 0.00000000) 
        (0.01558132 -0.01518843 0.00000000) 
        (0.01594574 -0.01534752 0.00000000) 
        (0.01631221 -0.01550498 0.00000000) 
        (0.01668072 -0.01566084 0.00000000) 
        (0.01705129 -0.01581513 0.00000000) 
        (0.01742393 -0.01596789 0.00000000) 
        (0.01779866 -0.01611915 0.00000000) 
        (0.01817548 -0.01626894 0.00000000) 
        (0.01855442 -0.01641732 0.00000000) 
        (0.01893547 -0.01656431 0.00000000) 
        (0.01931865 -0.01670996 0.00000000) 
        (0.01970397 -0.01685432 0.00000000) 
        (0.02009145 -0.01699744 0.00000000) 
        (0.02048110 -0.01713936 0.00000000) 
        (0.02087292 -0.01728014 0.00000000) 
        (0.02126694 -0.01741982 0.00000000) 
        (0.02166316 -0.01755842 0.00000000) 
        (0.02206159 -0.01769594 0.00000000) 
        (0.02246225 -0.01783242 0.00000000) 
        (0.02286516 -0.01796784 0.00000000) 
        (0.02327032 -0.01810224 0.00000000) 
        (0.02367774 -0.01823563 0.00000000) 
        (0.02408744 -0.01836801 0.00000000) 
        (0.02449943 -0.01849942 0.00000000) 
        (0.02491373 -0.01862987 0.00000000) 
        (0.02533034 -0.01875937 0.00000000) 
        (0.02574929 -0.01888796 0.00000000) 
        (0.02617057 -0.01901565 0.00000000) 
        (0.02659421 -0.01914246 0.00000000) 
        (0.02702022 -0.01926839 0.00000000) 
        (0.02744862 -0.01939347 0.00000000) 
        (0.02787941 -0.01951769 0.00000000) 
        (0.02831261 -0.01964107 0.00000000) 
        (0.02874823 -0.01976363 0.00000000) 
        (0.02918628 -0.01988537 0.00000000) 
        (0.02962679 -0.02000630 0.00000000) 
        (0.03006976 -0.02012645 0.00000000) 
        (0.03051521 -0.02024583 0.00000000) 
        (0.03096315 -0.02036446 0.00000000) 
        (0.03141359 -0.02048234 0.00000000) 
        (0.03186655 -0.02059949 0.00000000) 
        (0.03232205 -0.02071593 0.00000000) 
        (0.03278009 -0.02083165 0.00000000) 
        (0.03324069 -0.02094665 0.00000000) 
        (0.03370387 -0.02106095 0.00000000) 
        (0.03416965 -0.02117456 0.00000000) 
        (0.03463802 -0.02128748 0.00000000) 
        (0.03510901 -0.02139972 0.00000000) 
        (0.03558264 -0.02151129 0.00000000) 
        (0.03605892 -0.02162220 0.00000000) 
        (0.03653786 -0.02173246 0.00000000) 
        (0.03701948 -0.02184208 0.00000000) 
        (0.03750379 -0.02195106 0.00000000) 
        (0.03799081 -0.02205940 0.00000000) 
        (0.03848056 -0.02216712 0.00000000) 
        (0.03897304 -0.02227421 0.00000000) 
        (0.03946828 -0.02238068 0.00000000) 
        (0.03996628 -0.02248654 0.00000000) 
        (0.04046707 -0.02259179 0.00000000) 
        (0.04097067 -0.02269645 0.00000000) 
        (0.04147708 -0.02280051 0.00000000) 
        (0.04198632 -0.02290399 0.00000000) 
        (0.04249840 -0.02300688 0.00000000) 
        (0.04301336 -0.02310920 0.00000000) 
        (0.04353119 -0.02321094 0.00000000) 
        (0.04405192 -0.02331210 0.00000000) 
        (0.04457556 -0.02341270 0.00000000) 
        (0.04510212 -0.02351273 0.00000000) 
        (0.04563164 -0.02361220 0.00000000) 
        (0.04616411 -0.02371111 0.00000000) 
        (0.04669956 -0.02380948 0.00000000) 
        (0.04723801 -0.02390730 0.00000000) 
        (0.04777946 -0.02400457 0.00000000) 
        (0.04832395 -0.02410130 0.00000000) 
        (0.04887148 -0.02419749 0.00000000) 
        (0.04942207 -0.02429314 0.00000000) 
        (0.04997574 -0.02438826 0.00000000) 
        (0.05053251 -0.02448284 0.00000000) 
        (0.05109239 -0.02457690 0.00000000) 
        (0.05165540 -0.02467043 0.00000000) 
        (0.05222156 -0.02476344 0.00000000) 
        (0.05279089 -0.02485592 0.00000000) 
        (0.05336340 -0.02494789 0.00000000) 
        (0.05393911 -0.02503934 0.00000000) 
        (0.05451805 -0.02513027 0.00000000) 
        (0.05510021 -0.02522069 0.00000000) 
        (0.05568564 -0.02531059 0.00000000) 
        (0.05627434 -0.02539999 0.00000000) 
        (0.05686633 -0.02548887 0.00000000) 
        (0.05746163 -0.02557725 0.00000000) 
        (0.05806026 -0.02566513 0.00000000) 
        (0.05866224 -0.02575250 0.00000000) 
        (0.05926758 -0.02583936 0.00000000) 
        (0.05987632 -0.02592572 0.00000000) 
        (0.06048845 -0.02601158 0.00000000) 
        (0.06110401 -0.02609694 0.00000000) 
        (0.06172301 -0.02618180 0.00000000) 
        (0.06234547 -0.02626616 0.00000000) 
        (0.06297141 -0.02635003 0.00000000) 
        (0.06360085 -0.02643340 0.00000000) 
        (0.06423382 -0.02651627 0.00000000) 
        (0.06487032 -0.02659864 0.00000000) 
        (0.06551038 -0.02668052 0.00000000) 
        (0.06615402 -0.02676191 0.00000000) 
        (0.06680126 -0.02684280 0.00000000) 
        (0.06745213 -0.02692319 0.00000000) 
        (0.06810663 -0.02700309 0.00000000) 
        (0.06876479 -0.02708250 0.00000000) 
        (0.06942663 -0.02716142 0.00000000) 
        (0.07009217 -0.02723984 0.00000000) 
        (0.07076143 -0.02731776 0.00000000) 
        (0.07143444 -0.02739520 0.00000000) 
        (0.07211121 -0.02747213 0.00000000) 
        (0.07279177 -0.02754858 0.00000000) 
        (0.07347613 -0.02762453 0.00000000) 
        (0.07416432 -0.02769999 0.00000000) 
        (0.07485635 -0.02777495 0.00000000) 
        (0.07555226 -0.02784942 0.00000000) 
        (0.07625206 -0.02792339 0.00000000) 
        (0.07695577 -0.02799686 0.00000000) 
        (0.07766342 -0.02806984 0.00000000) 
        (0.07837502 -0.02814232 0.00000000) 
        (0.07909061 -0.02821431 0.00000000) 
        (0.07981020 -0.02828579 0.00000000) 
        (0.08053381 -0.02835678 0.00000000) 
        (0.08126146 -0.02842726 0.00000000) 
        (0.08199319 -0.02849725 0.00000000) 
        (0.08272901 -0.02856673 0.00000000) 
        (0.08346894 -0.02863572 0.00000000) 
        (0.08421301 -0.02870420 0.00000000) 
        (0.08496124 -0.02877217 0.00000000) 
        (0.08571366 -0.02883964 0.00000000) 
        (0.08647028 -0.02890660 0.00000000) 
        (0.08723114 -0.02897306 0.00000000) 
        (0.08799625 -0.02903900 0.00000000) 
        (0.08876564 -0.02910444 0.00000000) 
        (0.08953933 -0.02916937 0.00000000) 
        (0.09031735 -0.02923378 0.00000000) 
        (0.09109972 -0.02929768 0.00000000) 
        (0.09188646 -0.02936107 0.00000000) 
        (0.09267761 -0.02942394 0.00000000) 
        (0.09347318 -0.02948629 0.00000000) 
        (0.09427319 -0.02954812 0.00000000) 
        (0.09507769 -0.02960944 0.00000000) 
        (0.09588668 -0.02967023 0.00000000) 
        (0.09670019 -0.02973049 0.00000000) 
        (0.09751826 -0.02979024 0.00000000) 
        (0.09834089 -0.02984945 0.00000000) 
        (0.09916813 -0.02990814 0.00000000) 
        (0.10000000 -0.02996630 0.00000000) 
        (0.10092142 -0.03002973 0.00000000) 
        (0.10184569 -0.03009232 0.00000000) 
        (0.10277282 -0.03015408 0.00000000) 
        (0.10370284 -0.03021501 0.00000000) 
        (0.10463573 -0.03027513 0.00000000) 
        (0.10557152 -0.03033442 0.00000000) 
        (0.10651020 -0.03039291 0.00000000) 
        (0.10745180 -0.03045059 0.00000000) 
        (0.10839632 -0.03050747 0.00000000) 
        (0.10934376 -0.03056355 0.00000000) 
        (0.11029414 -0.03061884 0.00000000) 
        (0.11124747 -0.03067333 0.00000000) 
        (0.11220375 -0.03072705 0.00000000) 
        (0.11316299 -0.03077999 0.00000000) 
        (0.11412521 -0.03083215 0.00000000) 
        (0.11509042 -0.03088353 0.00000000) 
        (0.11605861 -0.03093415 0.00000000) 
        (0.11702981 -0.03098401 0.00000000) 
        (0.11800402 -0.03103310 0.00000000) 
        (0.11898124 -0.03108144 0.00000000) 
        (0.11996150 -0.03112903 0.00000000) 
        (0.12094479 -0.03117587 0.00000000) 
        (0.12193114 -0.03122196 0.00000000) 
        (0.12292054 -0.03126731 0.00000000) 
        (0.12391301 -0.03131192 0.00000000) 
        (0.12490855 -0.03135579 0.00000000) 
        (0.12590718 -0.03139893 0.00000000) 
        (0.12690891 -0.03144134 0.00000000) 
        (0.12791374 -0.03148303 0.00000000) 
        (0.12892169 -0.03152399 0.00000000) 
        (0.12993276 -0.03156423 0.00000000) 
        (0.13094696 -0.03160376 0.00000000) 
        (0.13196431 -0.03164257 0.00000000) 
        (0.13298482 -0.03168067 0.00000000) 
        (0.13400848 -0.03171807 0.00000000) 
        (0.13503532 -0.03175475 0.00000000) 
        (0.13606535 -0.03179074 0.00000000) 
        (0.13709856 -0.03182602 0.00000000) 
        (0.13813498 -0.03186061 0.00000000) 
        (0.13917461 -0.03189450 0.00000000) 
        (0.14021747 -0.03192770 0.00000000) 
        (0.14126356 -0.03196021 0.00000000) 
        (0.14231289 -0.03199203 0.00000000) 
        (0.14336547 -0.03202317 0.00000000) 
        (0.14442132 -0.03205363 0.00000000) 
        (0.14548044 -0.03208341 0.00000000) 
        (0.14654284 -0.03211250 0.00000000) 
        (0.14760853 -0.03214093 0.00000000) 
        (0.14867753 -0.03216868 0.00000000) 
        (0.14974985 -0.03219576 0.00000000) 
        (0.15082548 -0.03222217 0.00000000) 
        (0.15190446 -0.03224792 0.00000000) 
        (0.15298677 -0.03227300 0.00000000) 
        (0.15407244 -0.03229742 0.00000000) 
        (0.15516148 -0.03232118 0.00000000) 
        (0.15625390 -0.03234428 0.00000000) 
        (0.15734969 -0.03236672 0.00000000) 
        (0.15844889 -0.03238852 0.00000000) 
        (0.15955150 -0.03240966 0.00000000) 
        (0.16065752 -0.03243015 0.00000000) 
        (0.16176697 -0.03245000 0.00000000) 
        (0.16287986 -0.03246920 0.00000000) 
        (0.16399620 -0.03248775 0.00000000) 
        (0.16511600 -0.03250566 0.00000000) 
        (0.16623927 -0.03252294 0.00000000) 
        (0.16736602 -0.03253957 0.00000000) 
        (0.16849627 -0.03255557 0.00000000) 
        (0.16963002 -0.03257094 0.00000000) 
        (0.17076729 -0.03258567 0.00000000) 
        (0.17190808 -0.03259978 0.00000000) 
        (0.17305240 -0.03261325 0.00000000) 
        (0.17420028 -0.03262610 0.00000000) 
        (0.17535171 -0.03263832 0.00000000) 
        (0.17650671 -0.03264992 0.00000000) 
        (0.17766529 -0.03266090 0.00000000) 
        (0.17882747 -0.03267125 0.00000000) 
        (0.17999324 -0.03268099 0.00000000) 
        (0.18116264 -0.03269011 0.00000000) 
        (0.18233565 -0.03269862 0.00000000) 
        (0.18351230 -0.03270652 0.00000000) 
        (0.18469260 -0.03271380 0.00000000) 
        (0.18587656 -0.03272048 0.00000000) 
        (0.18706419 -0.03272654 0.00000000) 
        (0.18825550 -0.03273200 0.00000000) 
        (0.18945050 -0.03273686 0.00000000) 
        (0.19064921 -0.03274111 0.00000000) 
        (0.19185163 -0.03274476 0.00000000) 
        (0.19305778 -0.03274781 0.00000000) 
        (0.19426767 -0.03275027 0.00000000) 
        (0.19548131 -0.03275212 0.00000000) 
        (0.19669872 -0.03275339 0.00000000) 
        (0.19791989 -0.03275406 0.00000000) 
        (0.19914485 -0.03275413 0.00000000) 
        (0.20037361 -0.03275362 0.00000000) 
        (0.20160618 -0.03275252 0.00000000) 
        (0.20284257 -0.03275084 0.00000000) 
        (0.20408279 -0.03274857 0.00000000) 
        (0.20532686 -0.03274571 0.00000000) 
        (0.20657478 -0.03274228 0.00000000) 
        (0.20782658 -0.03273826 0.00000000) 
        (0.20908225 -0.03273367 0.00000000) 
        (0.21034181 -0.03272850 0.00000000) 
        (0.21160528 -0.03272276 0.00000000) 
        (0.21287267 -0.03271644 0.00000000) 
        (0.21414398 -0.03270955 0.00000000) 
        (0.21541924 -0.03270209 0.00000000) 
        (0.21669845 -0.03269406 0.00000000) 
        (0.21798162 -0.03268547 0.00000000) 
        (0.21926878 -0.03267631 0.00000000) 
        (0.22055992 -0.03266659 0.00000000) 
        (0.22185506 -0.03265631 0.00000000) 
        (0.22315422 -0.03264546 0.00000000) 
        (0.22445741 -0.03263406 0.00000000) 
        (0.22576464 -0.03262210 0.00000000) 
        (0.22707592 -0.03260959 0.00000000) 
        (0.22839126 -0.03259653 0.00000000) 
        (0.22971068 -0.03258291 0.00000000) 
        (0.23103420 -0.03256875 0.00000000) 
        (0.23236181 -0.03255403 0.00000000) 
        (0.23369354 -0.03253878 0.00000000) 
        (0.23502940 -0.03252297 0.00000000) 
        (0.23636940 -0.03250663 0.00000000) 
        (0.23771355 -0.03248974 0.00000000) 
        (0.23906187 -0.03247232 0.00000000) 
        (0.24041437 -0.03245436 0.00000000) 
        (0.24177107 -0.03243586 0.00000000) 
        (0.24313196 -0.03241684 0.00000000) 
        (0.24449708 -0.03239728 0.00000000) 
        (0.24586643 -0.03237719 0.00000000) 
        (0.24724002 -0.03235657 0.00000000) 
        (0.24861788 -0.03233543 0.00000000) 
        ) 
    spline 1 2 ( 
        (0.00000000 0.00000000 0.00000000) 
        (0.00027729 0.00378689 0.00000000) 
        (0.00055613 0.00475635 0.00000000) 
        (0.00083653 0.00552520 0.00000000) 
        (0.00111849 0.00618462 0.00000000) 
        (0.00140204 0.00677260 0.00000000) 
        (0.00168717 0.00730930 0.00000000) 
        (0.00197389 0.00780693 0.00000000) 
        (0.00226222 0.00827357 0.00000000) 
        (0.00255216 0.00871486 0.00000000) 
        (0.00284372 0.00913495 0.00000000) 
        (0.00313691 0.00953700 0.00000000) 
        (0.00343174 0.00992526 0.00000000) 
        (0.00372822 0.01030167 0.00000000) 
        (0.00402636 0.01066672 0.00000000) 
        (0.00432616 0.01102094 0.00000000) 
        (0.00462764 0.01136485 0.00000000) 
        (0.00493081 0.01169901 0.00000000) 
        (0.00523567 0.01202400 0.00000000) 
        (0.00554224 0.01234042 0.00000000) 
        (0.00585052 0.01264890 0.00000000) 
        (0.00616053 0.01295008 0.00000000) 
        (0.00647227 0.01324464 0.00000000) 
        (0.00678575 0.01353328 0.00000000) 
        (0.00710099 0.01381673 0.00000000) 
        (0.00741799 0.01409575 0.00000000) 
        (0.00773676 0.01437110 0.00000000) 
        (0.00805732 0.01464342 0.00000000) 
        (0.00837966 0.01491282 0.00000000) 
        (0.00870381 0.01517936 0.00000000) 
        (0.00902978 0.01544310 0.00000000) 
        (0.00935756 0.01570410 0.00000000) 
        (0.00968718 0.01596241 0.00000000) 
        (0.01001864 0.01621810 0.00000000) 
        (0.01035196 0.01647124 0.00000000) 
        (0.01068714 0.01672189 0.00000000) 
        (0.01102419 0.01697015 0.00000000) 
        (0.01136313 0.01721608 0.00000000) 
        (0.01170397 0.01745976 0.00000000) 
        (0.01204671 0.01770129 0.00000000) 
        (0.01239136 0.01794075 0.00000000) 
        (0.01273795 0.01817823 0.00000000) 
        (0.01308647 0.01841380 0.00000000) 
        (0.01343694 0.01864750 0.00000000) 
        (0.01378938 0.01887940 0.00000000) 
        (0.01414378 0.01910956 0.00000000) 
        (0.01450016 0.01933804 0.00000000) 
        (0.01485854 0.01956490 0.00000000) 
        (0.01521892 0.01979022 0.00000000) 
        (0.01558132 0.02001407 0.00000000) 
        (0.01594574 0.02023652 0.00000000) 
        (0.01631221 0.02045766 0.00000000) 
        (0.01668072 0.02067757 0.00000000) 
        (0.01705129 0.02089633 0.00000000) 
        (0.01742393 0.02111403 0.00000000) 
        (0.01779866 0.02133072 0.00000000) 
        (0.01817548 0.02154642 0.00000000) 
        (0.01855442 0.02176113 0.00000000) 
        (0.01893547 0.02197489 0.00000000) 
        (0.01931865 0.02218772 0.00000000) 
        (0.01970397 0.02239963 0.00000000) 
        (0.02009145 0.02261064 0.00000000) 
        (0.02048110 0.02282079 0.00000000) 
        (0.02087292 0.02303010 0.00000000) 
        (0.02126694 0.02323859 0.00000000) 
        (0.02166316 0.02344629 0.00000000) 
        (0.02206159 0.02365324 0.00000000) 
        (0.02246225 0.02385946 0.00000000) 
        (0.02286516 0.02406496 0.00000000) 
        (0.02327032 0.02426977 0.00000000) 
        (0.02367774 0.02447390 0.00000000) 
        (0.02408744 0.02467736 0.00000000) 
        (0.02449943 0.02488017 0.00000000) 
        (0.02491373 0.02508236 0.00000000) 
        (0.02533034 0.02528395 0.00000000) 
        (0.02574929 0.02548495 0.00000000) 
        (0.02617057 0.02568539 0.00000000) 
        (0.02659421 0.02588529 0.00000000) 
        (0.02702022 0.02608468 0.00000000) 
        (0.02744862 0.02628358 0.00000000) 
        (0.02787941 0.02648200 0.00000000) 
        (0.02831261 0.02667994 0.00000000) 
        (0.02874823 0.02687742 0.00000000) 
        (0.02918628 0.02707444 0.00000000) 
        (0.02962679 0.02727102 0.00000000) 
        (0.03006976 0.02746717 0.00000000) 
        (0.03051521 0.02766290 0.00000000) 
        (0.03096315 0.02785822 0.00000000) 
        (0.03141359 0.02805315 0.00000000) 
        (0.03186655 0.02824770 0.00000000) 
        (0.03232205 0.02844188 0.00000000) 
        (0.03278009 0.02863571 0.00000000) 
        (0.03324069 0.02882919 0.00000000) 
        (0.03370387 0.02902232 0.00000000) 
        (0.03416965 0.02921511 0.00000000) 
        (0.03463802 0.02940758 0.00000000) 
        (0.03510901 0.02959972 0.00000000) 
        (0.03558264 0.02979156 0.00000000) 
        (0.03605892 0.02998310 0.00000000) 
        (0.03653786 0.03017434 0.00000000) 
        (0.03701948 0.03036532 0.00000000) 
        (0.03750379 0.03055601 0.00000000) 
        (0.03799081 0.03074645 0.00000000) 
        (0.03848056 0.03093662 0.00000000) 
        (0.03897304 0.03112653 0.00000000) 
        (0.03946828 0.03131619 0.00000000) 
        (0.03996628 0.03150561 0.00000000) 
        (0.04046707 0.03169479 0.00000000) 
        (0.04097067 0.03188373 0.00000000) 
        (0.04147708 0.03207246 0.00000000) 
        (0.04198632 0.03226096 0.00000000) 
        (0.04249840 0.03244926 0.00000000) 
        (0.04301336 0.03263735 0.00000000) 
        (0.04353119 0.03282523 0.00000000) 
        (0.04405192 0.03301291 0.00000000) 
        (0.04457556 0.03320040 0.00000000) 
        (0.04510212 0.03338769 0.00000000) 
        (0.04563164 0.03357480 0.00000000) 
        (0.04616411 0.03376173 0.00000000) 
        (0.04669956 0.03394848 0.00000000) 
        (0.04723801 0.03413506 0.00000000) 
        (0.04777946 0.03432147 0.00000000) 
        (0.04832395 0.03450771 0.00000000) 
        (0.04887148 0.03469379 0.00000000) 
        (0.04942207 0.03487971 0.00000000) 
        (0.04997574 0.03506547 0.00000000) 
        (0.05053251 0.03525108 0.00000000) 
        (0.05109239 0.03543653 0.00000000) 
        (0.05165540 0.03562184 0.00000000) 
        (0.05222156 0.03580701 0.00000000) 
        (0.05279089 0.03599204 0.00000000) 
        (0.05336340 0.03617693 0.00000000) 
        (0.05393911 0.03636167 0.00000000) 
        (0.05451805 0.03654629 0.00000000) 
        (0.05510021 0.03673076 0.00000000) 
        (0.05568564 0.03691511 0.00000000) 
        (0.05627434 0.03709933 0.00000000) 
        (0.05686633 0.03728342 0.00000000) 
        (0.05746163 0.03746739 0.00000000) 
        (0.05806026 0.03765123 0.00000000) 
        (0.05866224 0.03783496 0.00000000) 
        (0.05926758 0.03801856 0.00000000) 
        (0.05987632 0.03820204 0.00000000) 
        (0.06048845 0.03838540 0.00000000) 
        (0.06110401 0.03856864 0.00000000) 
        (0.06172301 0.03875177 0.00000000) 
        (0.06234547 0.03893479 0.00000000) 
        (0.06297141 0.03911769 0.00000000) 
        (0.06360085 0.03930047 0.00000000) 
        (0.06423382 0.03948315 0.00000000) 
        (0.06487032 0.03966571 0.00000000) 
        (0.06551038 0.03984815 0.00000000) 
        (0.06615402 0.04003049 0.00000000) 
        (0.06680126 0.04021272 0.00000000) 
        (0.06745213 0.04039483 0.00000000) 
        (0.06810663 0.04057684 0.00000000) 
        (0.06876479 0.04075874 0.00000000) 
        (0.06942663 0.04094052 0.00000000) 
        (0.07009217 0.04112219 0.00000000) 
        (0.07076143 0.04130375 0.00000000) 
        (0.07143444 0.04148520 0.00000000) 
        (0.07211121 0.04166654 0.00000000) 
        (0.07279177 0.04184777 0.00000000) 
        (0.07347613 0.04202889 0.00000000) 
        (0.07416432 0.04220989 0.00000000) 
        (0.07485635 0.04239077 0.00000000) 
        (0.07555226 0.04257155 0.00000000) 
        (0.07625206 0.04275220 0.00000000) 
        (0.07695577 0.04293275 0.00000000) 
        (0.07766342 0.04311317 0.00000000) 
        (0.07837502 0.04329348 0.00000000) 
        (0.07909061 0.04347366 0.00000000) 
        (0.07981020 0.04365373 0.00000000) 
        (0.08053381 0.04383367 0.00000000) 
        (0.08126146 0.04401349 0.00000000) 
        (0.08199319 0.04419319 0.00000000) 
        (0.08272901 0.04437276 0.00000000) 
        (0.08346894 0.04455220 0.00000000) 
        (0.08421301 0.04473151 0.00000000) 
        (0.08496124 0.04491069 0.00000000) 
        (0.08571366 0.04508974 0.00000000) 
        (0.08647028 0.04526865 0.00000000) 
        (0.08723114 0.04544742 0.00000000) 
        (0.08799625 0.04562606 0.00000000) 
        (0.08876564 0.04580455 0.00000000) 
        (0.08953933 0.04598290 0.00000000) 
        (0.09031735 0.04616110 0.00000000) 
        (0.09109972 0.04633915 0.00000000) 
        (0.09188646 0.04651706 0.00000000) 
        (0.09267761 0.04669481 0.00000000) 
        (0.09347318 0.04687240 0.00000000) 
        (0.09427319 0.04704984 0.00000000) 
        (0.09507769 0.04722711 0.00000000) 
        (0.09588668 0.04740422 0.00000000) 
        (0.09670019 0.04758116 0.00000000) 
        (0.09751826 0.04775793 0.00000000) 
        (0.09834089 0.04793453 0.00000000) 
        (0.09916813 0.04811095 0.00000000) 
        (0.10000000 0.04828718 0.00000000) 
        (0.10092142 0.04848104 0.00000000) 
        (0.10184569 0.04867409 0.00000000) 
        (0.10277282 0.04886632 0.00000000) 
        (0.10370284 0.04905775 0.00000000) 
        (0.10463573 0.04924837 0.00000000) 
        (0.10557152 0.04943819 0.00000000) 
        (0.10651020 0.04962720 0.00000000) 
        (0.10745180 0.04981542 0.00000000) 
        (0.10839632 0.05000284 0.00000000) 
        (0.10934376 0.05018946 0.00000000) 
        (0.11029414 0.05037529 0.00000000) 
        (0.11124747 0.05056033 0.00000000) 
        (0.11220375 0.05074458 0.00000000) 
        (0.11316299 0.05092803 0.00000000) 
        (0.11412521 0.05111071 0.00000000) 
        (0.11509042 0.05129259 0.00000000) 
        (0.11605861 0.05147369 0.00000000) 
        (0.11702981 0.05165400 0.00000000) 
        (0.11800402 0.05183354 0.00000000) 
        (0.11898124 0.05201229 0.00000000) 
        (0.11996150 0.05219025 0.00000000) 
        (0.12094479 0.05236744 0.00000000) 
        (0.12193114 0.05254384 0.00000000) 
        (0.12292054 0.05271947 0.00000000) 
        (0.12391301 0.05289431 0.00000000) 
        (0.12490855 0.05306838 0.00000000) 
        (0.12590718 0.05324166 0.00000000) 
        (0.12690891 0.05341417 0.00000000) 
        (0.12791374 0.05358590 0.00000000) 
        (0.12892169 0.05375684 0.00000000) 
        (0.12993276 0.05392701 0.00000000) 
        (0.13094696 0.05409640 0.00000000) 
        (0.13196431 0.05426501 0.00000000) 
        (0.13298482 0.05443283 0.00000000) 
        (0.13400848 0.05459988 0.00000000) 
        (0.13503532 0.05476614 0.00000000) 
        (0.13606535 0.05493162 0.00000000) 
        (0.13709856 0.05509632 0.00000000) 
        (0.13813498 0.05526024 0.00000000) 
        (0.13917461 0.05542337 0.00000000) 
        (0.14021747 0.05558571 0.00000000) 
        (0.14126356 0.05574727 0.00000000) 
        (0.14231289 0.05590804 0.00000000) 
        (0.14336547 0.05606802 0.00000000) 
        (0.14442132 0.05622721 0.00000000) 
        (0.14548044 0.05638561 0.00000000) 
        (0.14654284 0.05654321 0.00000000) 
        (0.14760853 0.05670003 0.00000000) 
        (0.14867753 0.05685604 0.00000000) 
        (0.14974985 0.05701126 0.00000000) 
        (0.15082548 0.05716569 0.00000000) 
        (0.15190446 0.05731931 0.00000000) 
        (0.15298677 0.05747213 0.00000000) 
        (0.15407244 0.05762414 0.00000000) 
        (0.15516148 0.05777535 0.00000000) 
        (0.15625390 0.05792575 0.00000000) 
        (0.15734969 0.05807534 0.00000000) 
        (0.15844889 0.05822412 0.00000000) 
        (0.15955150 0.05837209 0.00000000) 
        (0.16065752 0.05851924 0.00000000) 
        (0.16176697 0.05866557 0.00000000) 
        (0.16287986 0.05881109 0.00000000) 
        (0.16399620 0.05895578 0.00000000) 
        (0.16511600 0.05909964 0.00000000) 
        (0.16623927 0.05924268 0.00000000) 
        (0.16736602 0.05938488 0.00000000) 
        (0.16849627 0.05952626 0.00000000) 
        (0.16963002 0.05966680 0.00000000) 
        (0.17076729 0.05980650 0.00000000) 
        (0.17190808 0.05994536 0.00000000) 
        (0.17305240 0.06008338 0.00000000) 