/*--------------------------------*- C++ -*----------------------------------*\ 
| =========                 |                                                 | 
| \      /  F ield         | OpenFOAM: The Open Source CFD Toolbox           | 
|  \    /   O peration     | Version:  5                                     | 
|   \  /    A nd           | Web:      www.OpenFOAM.org                      | 
|    \/     M anipulation  |                                                 | 
\*---------------------------------------------------------------------------*/ 

FoamFile 
{ 
    version     2.0; 
    format      ascii; 
    class       dictionary; 
    object      blockMeshDict;; 
} 
// * * * * * * * * * * * * * * * * * * * * * * * * * * * * * * * * * * * * * // 

convertToMeters 1; 

vertices 
( 
    (-3.00000000 0.00000000 0.00000000) 
    (0.00000000 0.00000000 0.00000000) 
    (0.25000000 0.07668975 0.00000000) 
    (0.25000000 3.00000000 0.00000000) 
    (1.00000000 3.00000000 0.00000000) 
    (1.00000000 0.00000000 0.00000000) 
    (7.00000000 3.00000000 0.00000000) 
    (7.00000000 0.00000000 0.00000000) 
    (7.00000000 -3.00000000 0.00000000) 
    (1.00000000 -3.00000000 0.00000000) 
    (0.25000000 -3.00000000 0.00000000) 
    (0.25000000 -0.04220393 0.00000000) 
    (-3.00000000 0.00000000 0.10000000) 
    (0.00000000 0.00000000 0.10000000) 
    (0.25000000 0.07668975 0.10000000) 
    (0.25000000 3.00000000 0.10000000) 
    (1.00000000 3.00000000 0.10000000) 
    (1.00000000 0.00000000 0.10000000) 
    (7.00000000 3.00000000 0.10000000) 
    (7.00000000 0.00000000 0.10000000) 
    (7.00000000 -3.00000000 0.10000000) 
    (1.00000000 -3.00000000 0.10000000) 
    (0.25000000 -3.00000000 0.10000000) 
    (0.25000000 -0.04220393 0.10000000) 
); 

blocks 
( 
    hex (1 2 3 0 13 14 15 12) (50 50 1) simpleGrading
    ( 
     ( 
     (0.100 0.100 1.000) 
     (0.150 0.150 1.000) 
     ) 
     ( 
     (0.022 0.300 49.276) 
     (0.978 0.700 1.000) 
     ) 
    1.000 
    ) 
    hex (2 5 4 3 14 17 16 15) (20 50 1) simpleGrading
    ( 
     ( 
     (0.400 0.400 1.000) 
     (0.350 0.350 1.000) 
     ) 
     ( 
     (0.022 0.300 49.276) 
     (0.978 0.700 1.000) 
     ) 
    1.000 
    ) 
    hex (5 7 6 4 17 19 18 16) (100 50 1) simpleGrading
    ( 
    1.000 
     ( 
     (0.022 0.300 49.276) 
     (0.978 0.700 1.000) 
     ) 
    1.000 
    ) 
    hex (13 23 22 12 1 11 10 0) (50 50 1) simpleGrading
    ( 
     ( 
     (0.100 0.100 1.000) 
     (0.150 0.150 1.000) 
     ) 
     ( 
     (0.022 0.300 49.276) 
     (0.978 0.700 1.000) 
     ) 
    1.000 
    ) 
    hex (23 17 21 22 11 5 9 10) (20 50 1) simpleGrading
    ( 
     ( 
     (0.400 0.400 1.000) 
     (0.350 0.350 1.000) 
     ) 
     ( 
     (0.022 0.300 49.276) 
     (0.978 0.700 1.000) 
     ) 
    1.000 
    ) 
    hex (17 19 20 21 5 7 8 9) (100 50 1) simpleGrading
    ( 
    1.000 
     ( 
     (0.022 0.300 49.276) 
     (0.978 0.700 1.000) 
     ) 
    1.000 
    ) 
); 

edges 
( 
    arc 0 3   (-2.12132034 2.12132034 0.00000000) 
    arc 12 15 (-2.12132034 2.12132034 0.10000000) 
    arc 0 10  (-2.12132034 -2.12132034 0.00000000) 
    arc 12 22 (-2.12132034 -2.12132034 0.10000000) 
    spline 1 11 ( 
        (0.00000000 0.00000000 0.00000000) 
        (0.01428571 -0.01757484 0.00000000) 
        (0.02857143 -0.02400080 0.00000000) 
        (0.04285714 -0.02833761 0.00000000) 
        (0.05714286 -0.03154121 0.00000000) 
        (0.07142857 -0.03404203 0.00000000) 
        (0.08571429 -0.03601823 0.00000000) 
        (0.10000000 -0.03760667 0.00000000) 
        (0.11363636 -0.03882566 0.00000000) 
        (0.12727273 -0.03981123 0.00000000) 
        (0.14090909 -0.04059350 0.00000000) 
        (0.15454545 -0.04120645 0.00000000) 
        (0.16818182 -0.04167027 0.00000000) 
        (0.18181818 -0.04200431 0.00000000) 
        (0.19545455 -0.04222488 0.00000000) 
        (0.20909091 -0.04234357 0.00000000) 
        (0.22272727 -0.04237413 0.00000000) 
        (0.23636364 -0.04232375 0.00000000) 
        ) 
    spline 1 2 ( 
        (0.00000000 0.00312364 0.00000000) 
        (0.01428571 0.02296708 0.00000000) 
        (0.02857143 0.03178444 0.00000000) 
        (0.04285714 0.03844056 0.00000000) 
        (0.05714286 0.04392411 0.00000000) 
        (0.07142857 0.04860129 0.00000000) 
        (0.08571429 0.05268366 0.00000000) 
        (0.10000000 0.05628831 0.00000000) 
        (0.11363636 0.05935161 0.00000000) 
        (0.12727273 0.06209958 0.00000000) 
        (0.14090909 0.06456909 0.00000000) 
        (0.15454545 0.06678258 0.00000000) 
        (0.16818182 0.06876905 0.00000000) 
        (0.18181818 0.07054234 0.00000000) 
        (0.19545455 0.07211854 0.00000000) 
        (0.20909091 0.07351294 0.00000000) 
        (0.22272727 0.07473145 0.00000000) 
        (0.23636364 0.07578770 0.00000000) 
        ) 
    spline 11 5 ( 
        (0.25000000 -0.04220393 0.00000000) 
        (0.26428571 -0.04201008 0.00000000) 
        (0.27857143 -0.04175594 0.00000000) 
        (0.29285714 -0.04144779 0.00000000) 
        (0.30714286 -0.04109229 0.00000000) 
        (0.32142857 -0.04069591 0.00000000) 
        (0.33571429 -0.04026318 0.00000000) 
        (0.35000000 -0.03979979 0.00000000) 
        (0.36428571 -0.03931021 0.00000000) 
        (0.37857143 -0.03879828 0.00000000) 
        (0.39285714 -0.03826841 0.00000000) 
        (0.40714286 -0.03772248 0.00000000) 
        (0.42142857 -0.03714314 0.00000000) 
        (0.43571429 -0.03652804 0.00000000) 
        (0.45000000 -0.03587904 0.00000000) 
        (0.46428571 -0.03519974 0.00000000) 
        (0.47857143 -0.03449203 0.00000000) 
        (0.49285714 -0.03375835 0.00000000) 
        (0.50714286 -0.03300102 0.00000000) 
        (0.52142857 -0.03222150 0.00000000) 
        (0.53571429 -0.03142220 0.00000000) 
        (0.55000000 -0.03060438 0.00000000) 
        (0.56428571 -0.02976985 0.00000000) 
        (0.57857143 -0.02892004 0.00000000) 
        (0.59285714 -0.02805611 0.00000000) 
        (0.60714286 -0.02717956 0.00000000) 
        (0.62142857 -0.02629115 0.00000000) 
        (0.63571429 -0.02539218 0.00000000) 
        (0.65000000 -0.02448342 0.00000000) 
        (0.66458333 -0.02354647 0.00000000) 
        (0.67916667 -0.02260101 0.00000000) 
        (0.69375000 -0.02164753 0.00000000) 
        (0.70833333 -0.02068671 0.00000000) 
        (0.72291667 -0.01971903 0.00000000) 
        (0.73750000 -0.01874472 0.00000000) 
        (0.75208333 -0.01776418 0.00000000) 
        (0.76666667 -0.01677761 0.00000000) 
        (0.78125000 -0.01578498 0.00000000) 
        (0.79583333 -0.01478644 0.00000000) 
        (0.81041667 -0.01378189 0.00000000) 
        (0.82500000 -0.01277110 0.00000000) 
        (0.83958333 -0.01175397 0.00000000) 
        (0.85416667 -0.01073008 0.00000000) 
        (0.86875000 -0.00969908 0.00000000) 
        (0.88333333 -0.00866059 0.00000000) 
        (0.89791667 -0.00761389 0.00000000) 
        (0.91250000 -0.00655852 0.00000000) 
        (0.92708333 -0.00549379 0.00000000) 
        (0.94166667 -0.00441879 0.00000000) 
        (0.95625000 -0.00333292 0.00000000) 
        (0.97083333 -0.00223509 0.00000000) 
        (0.98541667 -0.00112440 0.00000000) 
        (1.00000000 0.00000000 0.00000000) 
        ) 
    spline 2 5 ( 
        (0.25000000 0.07668975 0.00000000) 
        (0.26428571 0.07747370 0.00000000) 
        (0.27857143 0.07810498 0.00000000) 
        (0.29285714 0.07858608 0.00000000) 
        (0.30714286 0.07892651 0.00000000) 
        (0.32142857 0.07912872 0.00000000) 
        (0.33571429 0.07920006 0.00000000) 
        (0.35000000 0.07914302 0.00000000) 
        (0.36428571 0.07896325 0.00000000) 
        (0.37857143 0.07866336 0.00000000) 
        (0.39285714 0.07824755 0.00000000) 
        (0.40714286 0.07772012 0.00000000) 
        (0.42142857 0.07710370 0.00000000) 
        (0.43571429 0.07640746 0.00000000) 
        (0.45000000 0.07563285 0.00000000) 
        (0.46428571 0.07478410 0.00000000) 
        (0.47857143 0.07386118 0.00000000) 
        (0.49285714 0.07286864 0.00000000) 
        (0.50714286 0.07180639 0.00000000) 
        (0.52142857 0.07067784 0.00000000) 
        (0.53571429 0.06948372 0.00000000) 
        (0.55000000 0.06822600 0.00000000) 
        (0.56428571 0.06690630 0.00000000) 
        (0.57857143 0.06552524 0.00000000) 
        (0.59285714 0.06408528 0.00000000) 
        (0.60714286 0.06258578 0.00000000) 
        (0.62142857 0.06102963 0.00000000) 
        (0.63571429 0.05941615 0.00000000) 
        (0.65000000 0.05774732 0.00000000) 
        (0.66458333 0.05598687 0.00000000) 
        (0.67916667 0.05416931 0.00000000) 
        (0.69375000 0.05229612 0.00000000) 
        (0.70833333 0.05036683 0.00000000) 
        (0.72291667 0.04838217 0.00000000) 
        (0.73750000 0.04634297 0.00000000) 
        (0.75208333 0.04424826 0.00000000) 
        (0.76666667 0.04209899 0.00000000) 
        (0.78125000 0.03989547 0.00000000) 
        (0.79583333 0.03763625 0.00000000) 
        (0.81041667 0.03532243 0.00000000) 
        (0.82500000 0.03295374 0.00000000) 
        (0.83958333 0.03052858 0.00000000) 
        (0.85416667 0.02804786 0.00000000) 
        (0.86875000 0.02551086 0.00000000) 
        (0.88333333 0.02291591 0.00000000) 
        (0.89791667 0.02026357 0.00000000) 
        (0.91250000 0.01755285 0.00000000) 
        (0.92708333 0.01478183 0.00000000) 
        (0.94166667 0.01195081 0.00000000) 
        (0.95625000 0.00905861 0.00000000) 
        (0.97083333 0.00610289 0.00000000) 
        (0.98541667 0.00308378 0.00000000) 
        (1.00000000 -0.00000000 0.00000000) 
        ) 
    spline 13 23 ( 
        (0.00000000 0.00000000 0.10000000) 
        (0.01428571 -0.01757484 0.10000000) 
        (0.02857143 -0.02400080 0.10000000) 
        (0.04285714 -0.02833761 0.10000000) 
        (0.05714286 -0.03154121 0.10000000) 
        (0.07142857 -0.03404203 0.10000000) 
        (0.08571429 -0.03601823 0.10000000) 
        (0.10000000 -0.03760667 0.10000000) 
        (0.11363636 -0.03882566 0.10000000) 
        (0.12727273 -0.03981123 0.10000000) 
        (0.14090909 -0.04059350 0.10000000) 
        (0.15454545 -0.04120645 0.10000000) 
        (0.16818182 -0.04167027 0.10000000) 
        (0.18181818 -0.04200431 0.10000000) 
        (0.19545455 -0.04222488 0.10000000) 
        (0.20909091 -0.04234357 0.10000000) 
        (0.22272727 -0.04237413 0.10000000) 
        (0.23636364 -0.04232375 0.10000000) 
        ) 
    spline 13 14 ( 
        (0.00000000 0.00312364 0.10000000) 
        (0.01428571 0.02296708 0.10000000) 
        (0.02857143 0.03178444 0.10000000) 
        (0.04285714 0.03844056 0.10000000) 
        (0.05714286 0.04392411 0.10000000) 
        (0.07142857 0.04860129 0.10000000) 
        (0.08571429 0.05268366 0.10000000) 
        (0.10000000 0.05628831 0.10000000) 
        (0.11363636 0.05935161 0.10000000) 
        (0.12727273 0.06209958 0.10000000) 
        (0.14090909 0.06456909 0.10000000) 
        (0.15454545 0.06678258 0.10000000) 
        (0.16818182 0.06876905 0.10000000) 
        (0.18181818 0.07054234 0.10000000) 
        (0.19545455 0.07211854 0.10000000) 
        (0.20909091 0.07351294 0.10000000) 
        (0.22272727 0.07473145 0.10000000) 
        (0.23636364 0.07578770 0.10000000) 
        ) 
    spline 23 17 ( 
        (0.25000000 -0.04220393 0.10000000) 
        (0.26428571 -0.04201008 0.10000000) 
        (0.27857143 -0.04175594 0.10000000) 
        (0.29285714 -0.04144779 0.10000000) 
        (0.30714286 -0.04109229 0.10000000) 
        (0.32142857 -0.04069591 0.10000000) 
        (0.33571429 -0.04026318 0.10000000) 
        (0.35000000 -0.03979979 0.10000000) 
        (0.36428571 -0.03931021 0.10000000) 
        (0.37857143 -0.03879828 0.10000000) 
        (0.39285714 -0.03826841 0.10000000) 
        (0.40714286 -0.03772248 0.10000000) 
        (0.42142857 -0.03714314 0.10000000) 
        (0.43571429 -0.03652804 0.10000000) 
        (0.45000000 -0.03587904 0.10000000) 
        (0.46428571 -0.03519974 0.10000000) 
        (0.47857143 -0.03449203 0.10000000) 
        (0.49285714 -0.03375835 0.10000000) 
        (0.50714286 -0.03300102 0.10000000) 
        (0.52142857 -0.03222150 0.10000000) 
        (0.53571429 -0.03142220 0.10000000) 
        (0.55000000 -0.03060438 0.10000000) 
        (0.56428571 -0.02976985 0.10000000) 
        (0.57857143 -0.02892004 0.10000000) 
        (0.59285714 -0.02805611 0.10000000) 
        (0.60714286 -0.02717956 0.10000000) 
        (0.62142857 -0.02629115 0.10000000) 
        (0.63571429 -0.02539218 0.10000000) 
        (0.65000000 -0.02448342 0.10000000) 
        (0.66458333 -0.02354647 0.10000000) 
        (0.67916667 -0.02260101 0.10000000) 
        (0.69375000 -0.02164753 0.10000000) 
        (0.70833333 -0.02068671 0.10000000) 
        (0.72291667 -0.01971903 0.10000000) 
        (0.73750000 -0.01874472 0.10000000) 
        (0.75208333 -0.01776418 0.10000000) 
        (0.76666667 -0.01677761 0.10000000) 
        (0.78125000 -0.01578498 0.10000000) 
        (0.79583333 -0.01478644 0.10000000) 
        (0.81041667 -0.01378189 0.10000000) 
        (0.82500000 -0.01277110 0.10000000) 
        (0.83958333 -0.01175397 0.10000000) 
        (0.85416667 -0.01073008 0.10000000) 
        (0.86875000 -0.00969908 0.10000000) 
        (0.88333333 -0.00866059 0.10000000) 
        (0.89791667 -0.00761389 0.10000000) 
        (0.91250000 -0.00655852 0.10000000) 
        (0.92708333 -0.00549379 0.10000000) 
        (0.94166667 -0.00441879 0.10000000) 
        (0.95625000 -0.00333292 0.10000000) 
        (0.97083333 -0.00223509 0.10000000) 
        (0.98541667 -0.00112440 0.10000000) 
        (1.00000000 0.00000000 0.10000000) 
        ) 
    spline 14 17 ( 
        (0.25000000 0.07668975 0.10000000) 
        (0.26428571 0.07747370 0.10000000) 
        (0.27857143 0.07810498 0.10000000) 
        (0.29285714 0.07858608 0.10000000) 
        (0.30714286 0.07892651 0.10000000) 
        (0.32142857 0.07912872 0.10000000) 
        (0.33571429 0.07920006 0.10000000) 
        (0.35000000 0.07914302 0.10000000) 
        (0.36428571 0.07896325 0.10000000) 
        (0.37857143 0.07866336 0.10000000) 
        (0.39285714 0.07824755 0.10000000) 
        (0.40714286 0.07772012 0.10000000) 
        (0.42142857 0.07710370 0.10000000) 
        (0.43571429 0.07640746 0.10000000) 
        (0.45000000 0.07563285 0.10000000) 
        (0.46428571 0.07478410 0.10000000) 
        (0.47857143 0.07386118 0.10000000) 
        (0.49285714 0.07286864 0.10000000) 
        (0.50714286 0.07180639 0.10000000) 
        (0.52142857 0.07067784 0.10000000) 
        (0.53571429 0.06948372 0.10000000) 
        (0.55000000 0.06822600 0.10000000) 
        (0.56428571 0.06690630 0.10000000) 
        (0.57857143 0.06552524 0.10000000) 
        (0.59285714 0.06408528 0.10000000) 
        (0.60714286 0.06258578 0.10000000) 
        (0.62142857 0.06102963 0.10000000) 
        (0.63571429 0.05941615 0.10000000) 
        (0.65000000 0.05774732 0.10000000) 
        (0.66458333 0.05598687 0.10000000) 
        (0.67916667 0.05416931 0.10000000) 
        (0.69375000 0.05229612 0.10000000) 
        (0.70833333 0.05036683 0.10000000) 
        (0.72291667 0.04838217 0.10000000) 
        (0.73750000 0.04634297 0.10000000) 
        (0.75208333 0.04424826 0.10000000) 
        (0.76666667 0.04209899 0.10000000) 
        (0.78125000 0.03989547 0.10000000) 
        (0.79583333 0.03763625 0.10000000) 
        (0.81041667 0.03532243 0.10000000) 
        (0.82500000 0.03295374 0.10000000) 
        (0.83958333 0.03052858 0.10000000) 
        (0.85416667 0.02804786 0.10000000) 
        (0.86875000 0.02551086 0.10000000) 
        (0.88333333 0.02291591 0.10000000) 
        (0.89791667 0.02026357 0.10000000) 
        (0.91250000 0.01755285 0.10000000) 
        (0.92708333 0.01478183 0.10000000) 
        (0.94166667 0.01195081 0.10000000) 
        (0.95625000 0.00905861 0.10000000) 
        (0.97083333 0.00610289 0.10000000) 
        (0.98541667 0.00308378 0.10000000) 
        (1.00000000 -0.00000000 0.10000000) 
        ) 
); 

boundary 
( 
    inlet 
    { 
        type patch; 
        faces 
        ( 
            (3 15 12 0) 
            (0 12 22 10) 
            (10 22 21 9) 
            (9 21 20 8) 
        ); 
    } 
    outlet 
    { 
        type patch; 
        faces 
        ( 
            (15 3 4 16) 
            (16 4 6 18) 
            (18 6 7 19) 
            (19 7 8 20) 
        ); 
    } 
    airfoil 
    { 
        type patch; 
        faces 
        ( 
            (2 14 17 5) 
            (5 17 23 11) 
            (13 1 11 23) 
            (14 2 1 13) 
        ); 
    } 
    frontAndBack 
    { 
        type empty; 
        faces 
        ( 
            (15 14 13 12) 
            (15 16 17 14) 
            (16 18 19 17) 
            (17 19 20 21) 
            (23 17 21 22) 
            (12 13 23 22) 
            (2 3 0 1) 
            (4 3 2 5) 
            (6 4 7 5) 
            (1 0 10 11) 
            (11 10 9 5) 
            (5 9 8 7) 
        ); 
    } 
); 
