/*--------------------------------*- C++ -*----------------------------------*\ 
| =========                 |                                                 | 
| \      /  F ield         | OpenFOAM: The Open Source CFD Toolbox           | 
|  \    /   O peration     | Version:  5                                     | 
|   \  /    A nd           | Web:      www.OpenFOAM.org                      | 
|    \/     M anipulation  |                                                 | 
\*---------------------------------------------------------------------------*/ 

FoamFile 
{ 
    version     2.0; 
    format      ascii; 
    class       dictionary; 
    object      blockMeshDict;; 
} 
// * * * * * * * * * * * * * * * * * * * * * * * * * * * * * * * * * * * * * // 

convertToMeters 1; 

vertices 
( 
    (-3.00000000 0.00000000 0.00000000) 
    (0.00000000 0.00000000 0.00000000) 
    (0.25000000 0.05940741 0.00000000) 
    (0.25000000 3.00000000 0.00000000) 
    (1.00000000 3.00000000 0.00000000) 
    (1.00000000 0.00000000 0.00000000) 
    (7.00000000 3.00000000 0.00000000) 
    (7.00000000 0.00000000 0.00000000) 
    (7.00000000 -3.00000000 0.00000000) 
    (1.00000000 -3.00000000 0.00000000) 
    (0.25000000 -3.00000000 0.00000000) 
    (0.25000000 -0.05940741 0.00000000) 
    (-3.00000000 0.00000000 0.10000000) 
    (0.00000000 0.00000000 0.10000000) 
    (0.25000000 0.05940741 0.10000000) 
    (0.25000000 3.00000000 0.10000000) 
    (1.00000000 3.00000000 0.10000000) 
    (1.00000000 0.00000000 0.10000000) 
    (7.00000000 3.00000000 0.10000000) 
    (7.00000000 0.00000000 0.10000000) 
    (7.00000000 -3.00000000 0.10000000) 
    (1.00000000 -3.00000000 0.10000000) 
    (0.25000000 -3.00000000 0.10000000) 
    (0.25000000 -0.05940741 0.10000000) 
); 

blocks 
( 
    hex (1 2 3 0 13 14 15 12) (100 50 1) simpleGrading
    ( 
     ( 
     (0.100 0.200 1.000) 
     (0.150 0.200 1.000) 
     ) 
     ( 
     (0.022 0.300 49.276) 
     (0.978 0.700 1.000) 
     ) 
    1.000 
    ) 
    hex (2 5 4 3 14 17 16 15) (20 50 1) simpleGrading
    ( 
     ( 
     (0.400 0.250 1.000) 
     (0.350 0.350 1.000) 
     ) 
     ( 
     (0.022 0.300 49.276) 
     (0.978 0.700 1.000) 
     ) 
    1.000 
    ) 
    hex (5 7 6 4 17 19 18 16) (100 50 1) simpleGrading
    ( 
    1.000 
     ( 
     (0.022 0.300 49.276) 
     (0.978 0.700 1.000) 
     ) 
    1.000 
    ) 
    hex (13 23 22 12 1 11 10 0) (100 50 1) simpleGrading
    ( 
     ( 
     (0.100 0.200 1.000) 
     (0.150 0.200 1.000) 
     ) 
     ( 
     (0.022 0.300 49.276) 
     (0.978 0.700 1.000) 
     ) 
    1.000 
    ) 
    hex (23 17 21 22 11 5 9 10) (20 50 1) simpleGrading
    ( 
     ( 
     (0.400 0.250 1.000) 
     (0.350 0.350 1.000) 
     ) 
     ( 
     (0.022 0.300 49.276) 
     (0.978 0.700 1.000) 
     ) 
    1.000 
    ) 
    hex (17 19 20 21 5 7 8 9) (100 50 1) simpleGrading
    ( 
    1.000 
     ( 
     (0.022 0.300 49.276) 
     (0.978 0.700 1.000) 
     ) 
    1.000 
    ) 
); 

edges 
( 
    arc 0 3   (-2.12132034 2.12132034 0.00000000) 
    arc 12 15 (-2.12132034 2.12132034 0.10000000) 
    arc 0 10  (-2.12132034 -2.12132034 0.00000000) 
    arc 12 22 (-2.12132034 -2.12132034 0.10000000) 
    spline 1 11 ( 
        (0.00000000 -0.00000000 0.00000000) 
        (0.00416667 -0.01116614 0.00000000) 
        (0.00833333 -0.01560807 0.00000000) 
        (0.01250000 -0.01893247 0.00000000) 
        (0.01666667 -0.02167527 0.00000000) 
        (0.02083333 -0.02404400 0.00000000) 
        (0.02500000 -0.02614510 0.00000000) 
        (0.02916667 -0.02804182 0.00000000) 
        (0.03333333 -0.02977538 0.00000000) 
        (0.03750000 -0.03137342 0.00000000) 
        (0.04166667 -0.03285776 0.00000000) 
        (0.04583333 -0.03424452 0.00000000) 
        (0.05000000 -0.03554589 0.00000000) 
        (0.05416667 -0.03677159 0.00000000) 
        (0.05833333 -0.03792951 0.00000000) 
        (0.06250000 -0.03902620 0.00000000) 
        (0.06666667 -0.04006710 0.00000000) 
        (0.07083333 -0.04105660 0.00000000) 
        (0.07500000 -0.04199867 0.00000000) 
        (0.07916667 -0.04289709 0.00000000) 
        (0.08333333 -0.04375483 0.00000000) 
        (0.08750000 -0.04457454 0.00000000) 
        (0.09166667 -0.04535853 0.00000000) 
        (0.09583333 -0.04610887 0.00000000) 
        (0.10000000 -0.04682744 0.00000000) 
        (0.10625000 -0.04784883 0.00000000) 
        (0.11250000 -0.04880767 0.00000000) 
        (0.11875000 -0.04970811 0.00000000) 
        (0.12500000 -0.05055346 0.00000000) 
        (0.13125000 -0.05134773 0.00000000) 
        (0.13750000 -0.05209383 0.00000000) 
        (0.14375000 -0.05279382 0.00000000) 
        (0.15000000 -0.05345075 0.00000000) 
        (0.15625000 -0.05406676 0.00000000) 
        (0.16250000 -0.05464331 0.00000000) 
        (0.16875000 -0.05518266 0.00000000) 
        (0.17500000 -0.05568651 0.00000000) 
        (0.18125000 -0.05615598 0.00000000) 
        (0.18750000 -0.05659275 0.00000000) 
        (0.19375000 -0.05699821 0.00000000) 
        (0.20000000 -0.05737331 0.00000000) 
        (0.20625000 -0.05771928 0.00000000) 
        (0.21250000 -0.05803732 0.00000000) 
        (0.21875000 -0.05832823 0.00000000) 
        (0.22500000 -0.05859293 0.00000000) 
        (0.23125000 -0.05883248 0.00000000) 
        (0.23750000 -0.05904758 0.00000000) 
        (0.24375000 -0.05923890 0.00000000) 
        ) 
    spline 1 2 ( 
        (0.00000000 0.00000000 0.00000000) 
        (0.00416667 0.01116614 0.00000000) 
        (0.00833333 0.01560807 0.00000000) 
        (0.01250000 0.01893247 0.00000000) 
        (0.01666667 0.02167527 0.00000000) 
        (0.02083333 0.02404400 0.00000000) 
        (0.02500000 0.02614510 0.00000000) 
        (0.02916667 0.02804182 0.00000000) 
        (0.03333333 0.02977538 0.00000000) 
        (0.03750000 0.03137342 0.00000000) 
        (0.04166667 0.03285776 0.00000000) 
        (0.04583333 0.03424452 0.00000000) 
        (0.05000000 0.03554589 0.00000000) 
        (0.05416667 0.03677159 0.00000000) 
        (0.05833333 0.03792951 0.00000000) 
        (0.06250000 0.03902620 0.00000000) 
        (0.06666667 0.04006710 0.00000000) 
        (0.07083333 0.04105660 0.00000000) 
        (0.07500000 0.04199867 0.00000000) 
        (0.07916667 0.04289709 0.00000000) 
        (0.08333333 0.04375483 0.00000000) 
        (0.08750000 0.04457454 0.00000000) 
        (0.09166667 0.04535853 0.00000000) 
        (0.09583333 0.04610887 0.00000000) 
        (0.10000000 0.04682744 0.00000000) 
        (0.10625000 0.04784883 0.00000000) 
        (0.11250000 0.04880767 0.00000000) 
        (0.11875000 0.04970811 0.00000000) 
        (0.12500000 0.05055346 0.00000000) 
        (0.13125000 0.05134773 0.00000000) 
        (0.13750000 0.05209383 0.00000000) 
        (0.14375000 0.05279382 0.00000000) 
        (0.15000000 0.05345075 0.00000000) 
        (0.15625000 0.05406676 0.00000000) 
        (0.16250000 0.05464331 0.00000000) 
        (0.16875000 0.05518266 0.00000000) 
        (0.17500000 0.05568651 0.00000000) 
        (0.18125000 0.05615598 0.00000000) 
        (0.18750000 0.05659275 0.00000000) 
        (0.19375000 0.05699821 0.00000000) 
        (0.20000000 0.05737331 0.00000000) 
        (0.20625000 0.05771928 0.00000000) 
        (0.21250000 0.05803732 0.00000000) 
        (0.21875000 0.05832823 0.00000000) 
        (0.22500000 0.05859293 0.00000000) 
        (0.23125000 0.05883248 0.00000000) 
        (0.23750000 0.05904758 0.00000000) 
        (0.24375000 0.05923890 0.00000000) 
        ) 
    spline 11 5 ( 
        (0.25000000 -0.05940741 0.00000000) 
        (0.26333333 -0.05969336 0.00000000) 
        (0.27666667 -0.05988439 0.00000000) 
        (0.29000000 -0.05998615 0.00000000) 
        (0.30333333 -0.06000378 0.00000000) 
        (0.31666667 -0.05994197 0.00000000) 
        (0.33000000 -0.05980501 0.00000000) 
        (0.34333333 -0.05959686 0.00000000) 
        (0.35666667 -0.05932116 0.00000000) 
        (0.37000000 -0.05898128 0.00000000) 
        (0.38333333 -0.05858037 0.00000000) 
        (0.39666667 -0.05812134 0.00000000) 
        (0.41000000 -0.05760691 0.00000000) 
        (0.42333333 -0.05703960 0.00000000) 
        (0.43666667 -0.05642179 0.00000000) 
        (0.45000000 -0.05575569 0.00000000) 
        (0.46333333 -0.05504336 0.00000000) 
        (0.47666667 -0.05428675 0.00000000) 
        (0.49000000 -0.05348767 0.00000000) 
        (0.50333333 -0.05264780 0.00000000) 
        (0.51666667 -0.05176872 0.00000000) 
        (0.53000000 -0.05085192 0.00000000) 
        (0.54333333 -0.04989877 0.00000000) 
        (0.55666667 -0.04891055 0.00000000) 
        (0.57000000 -0.04788845 0.00000000) 
        (0.58333333 -0.04683356 0.00000000) 
        (0.59666667 -0.04574690 0.00000000) 
        (0.61000000 -0.04462940 0.00000000) 
        (0.62333333 -0.04348192 0.00000000) 
        (0.63666667 -0.04230523 0.00000000) 
        (0.65000000 -0.04110003 0.00000000) 
        (0.65833333 -0.04033259 0.00000000) 
        (0.66666667 -0.03955437 0.00000000) 
        (0.67500000 -0.03876556 0.00000000) 
        (0.68333333 -0.03796625 0.00000000) 
        (0.69166667 -0.03715655 0.00000000) 
        (0.70000000 -0.03633651 0.00000000) 
        (0.70833333 -0.03550628 0.00000000) 
        (0.71666667 -0.03466594 0.00000000) 
        (0.72500000 -0.03381553 0.00000000) 
        (0.73333333 -0.03295508 0.00000000) 
        (0.74166667 -0.03208468 0.00000000) 
        (0.75000000 -0.03120437 0.00000000) 
        (0.75833333 -0.03031418 0.00000000) 
        (0.76666667 -0.02941407 0.00000000) 
        (0.77500000 -0.02850412 0.00000000) 
        (0.78333333 -0.02758431 0.00000000) 
        (0.79166667 -0.02665465 0.00000000) 
        (0.80000000 -0.02571506 0.00000000) 
        (0.80833333 -0.02476557 0.00000000) 
        (0.81666667 -0.02380613 0.00000000) 
        (0.82500000 -0.02283672 0.00000000) 
        (0.83333333 -0.02185724 0.00000000) 
        (0.84166667 -0.02086763 0.00000000) 
        (0.85000000 -0.01986787 0.00000000) 
        (0.85833333 -0.01885786 0.00000000) 
        (0.86666667 -0.01783748 0.00000000) 
        (0.87500000 -0.01680665 0.00000000) 
        (0.88333333 -0.01576529 0.00000000) 
        (0.89166667 -0.01471328 0.00000000) 
        (0.90000000 -0.01365047 0.00000000) 
        (0.90833333 -0.01257673 0.00000000) 
        (0.91666667 -0.01149196 0.00000000) 
        (0.92500000 -0.01039600 0.00000000) 
        (0.93333333 -0.00928868 0.00000000) 
        (0.94166667 -0.00816981 0.00000000) 
        (0.95000000 -0.00703928 0.00000000) 
        (0.95833333 -0.00589689 0.00000000) 
        (0.96666667 -0.00474245 0.00000000) 
        (0.97500000 -0.00357571 0.00000000) 
        (0.98333333 -0.00239653 0.00000000) 
        (0.99166667 -0.00120470 0.00000000) 
        (1.00000000 0.00000000 0.00000000) 
        ) 
    spline 2 5 ( 
        (0.25000000 0.05940741 0.00000000) 
        (0.26333333 0.05969336 0.00000000) 
        (0.27666667 0.05988439 0.00000000) 
        (0.29000000 0.05998615 0.00000000) 
        (0.30333333 0.06000378 0.00000000) 
        (0.31666667 0.05994197 0.00000000) 
        (0.33000000 0.05980501 0.00000000) 
        (0.34333333 0.05959686 0.00000000) 
        (0.35666667 0.05932116 0.00000000) 
        (0.37000000 0.05898128 0.00000000) 
        (0.38333333 0.05858037 0.00000000) 
        (0.39666667 0.05812134 0.00000000) 
        (0.41000000 0.05760691 0.00000000) 
        (0.42333333 0.05703960 0.00000000) 
        (0.43666667 0.05642179 0.00000000) 
        (0.45000000 0.05575569 0.00000000) 
        (0.46333333 0.05504336 0.00000000) 
        (0.47666667 0.05428675 0.00000000) 
        (0.49000000 0.05348767 0.00000000) 
        (0.50333333 0.05264780 0.00000000) 
        (0.51666667 0.05176872 0.00000000) 
        (0.53000000 0.05085192 0.00000000) 
        (0.54333333 0.04989877 0.00000000) 
        (0.55666667 0.04891055 0.00000000) 
        (0.57000000 0.04788845 0.00000000) 
        (0.58333333 0.04683356 0.00000000) 
        (0.59666667 0.04574690 0.00000000) 
        (0.61000000 0.04462940 0.00000000) 
        (0.62333333 0.04348192 0.00000000) 
        (0.63666667 0.04230523 0.00000000) 
        (0.65000000 0.04110003 0.00000000) 
        (0.65833333 0.04033259 0.00000000) 
        (0.66666667 0.03955437 0.00000000) 
        (0.67500000 0.03876556 0.00000000) 
        (0.68333333 0.03796625 0.00000000) 
        (0.69166667 0.03715655 0.00000000) 
        (0.70000000 0.03633651 0.00000000) 
        (0.70833333 0.03550628 0.00000000) 
        (0.71666667 0.03466594 0.00000000) 
        (0.72500000 0.03381553 0.00000000) 
        (0.73333333 0.03295508 0.00000000) 
        (0.74166667 0.03208468 0.00000000) 
        (0.75000000 0.03120437 0.00000000) 
        (0.75833333 0.03031418 0.00000000) 
        (0.76666667 0.02941407 0.00000000) 
        (0.77500000 0.02850412 0.00000000) 
        (0.78333333 0.02758431 0.00000000) 
        (0.79166667 0.02665465 0.00000000) 
        (0.80000000 0.02571506 0.00000000) 
        (0.80833333 0.02476557 0.00000000) 
        (0.81666667 0.02380613 0.00000000) 
        (0.82500000 0.02283672 0.00000000) 
        (0.83333333 0.02185724 0.00000000) 
        (0.84166667 0.02086763 0.00000000) 
        (0.85000000 0.01986787 0.00000000) 
        (0.85833333 0.01885786 0.00000000) 
        (0.86666667 0.01783748 0.00000000) 
        (0.87500000 0.01680665 0.00000000) 
        (0.88333333 0.01576529 0.00000000) 
        (0.89166667 0.01471328 0.00000000) 
        (0.90000000 0.01365047 0.00000000) 
        (0.90833333 0.01257673 0.00000000) 
        (0.91666667 0.01149196 0.00000000) 
        (0.92500000 0.01039600 0.00000000) 
        (0.93333333 0.00928868 0.00000000) 
        (0.94166667 0.00816981 0.00000000) 
        (0.95000000 0.00703928 0.00000000) 
        (0.95833333 0.00589689 0.00000000) 
        (0.96666667 0.00474245 0.00000000) 
        (0.97500000 0.00357571 0.00000000) 
        (0.98333333 0.00239653 0.00000000) 
        (0.99166667 0.00120470 0.00000000) 
        (1.00000000 -0.00000000 0.00000000) 
        ) 
    spline 13 23 ( 
        (0.00000000 -0.00000000 0.10000000) 
        (0.00416667 -0.01116614 0.10000000) 
        (0.00833333 -0.01560807 0.10000000) 
        (0.01250000 -0.01893247 0.10000000) 
        (0.01666667 -0.02167527 0.10000000) 
        (0.02083333 -0.02404400 0.10000000) 
        (0.02500000 -0.02614510 0.10000000) 
        (0.02916667 -0.02804182 0.10000000) 
        (0.03333333 -0.02977538 0.10000000) 
        (0.03750000 -0.03137342 0.10000000) 
        (0.04166667 -0.03285776 0.10000000) 
        (0.04583333 -0.03424452 0.10000000) 
        (0.05000000 -0.03554589 0.10000000) 
        (0.05416667 -0.03677159 0.10000000) 
        (0.05833333 -0.03792951 0.10000000) 
        (0.06250000 -0.03902620 0.10000000) 
        (0.06666667 -0.04006710 0.10000000) 
        (0.07083333 -0.04105660 0.10000000) 
        (0.07500000 -0.04199867 0.10000000) 
        (0.07916667 -0.04289709 0.10000000) 
        (0.08333333 -0.04375483 0.10000000) 
        (0.08750000 -0.04457454 0.10000000) 
        (0.09166667 -0.04535853 0.10000000) 
        (0.09583333 -0.04610887 0.10000000) 
        (0.10000000 -0.04682744 0.10000000) 
        (0.10625000 -0.04784883 0.10000000) 
        (0.11250000 -0.04880767 0.10000000) 
        (0.11875000 -0.04970811 0.10000000) 
        (0.12500000 -0.05055346 0.10000000) 
        (0.13125000 -0.05134773 0.10000000) 
        (0.13750000 -0.05209383 0.10000000) 
        (0.14375000 -0.05279382 0.10000000) 
        (0.15000000 -0.05345075 0.10000000) 
        (0.15625000 -0.05406676 0.10000000) 
        (0.16250000 -0.05464331 0.10000000) 
        (0.16875000 -0.05518266 0.10000000) 
        (0.17500000 -0.05568651 0.10000000) 
        (0.18125000 -0.05615598 0.10000000) 
        (0.18750000 -0.05659275 0.10000000) 
        (0.19375000 -0.05699821 0.10000000) 
        (0.20000000 -0.05737331 0.10000000) 
        (0.20625000 -0.05771928 0.10000000) 
        (0.21250000 -0.05803732 0.10000000) 
        (0.21875000 -0.05832823 0.10000000) 
        (0.22500000 -0.05859293 0.10000000) 
        (0.23125000 -0.05883248 0.10000000) 
        (0.23750000 -0.05904758 0.10000000) 
        (0.24375000 -0.05923890 0.10000000) 
        ) 
    spline 13 14 ( 
        (0.00000000 0.00000000 0.10000000) 
        (0.00416667 0.01116614 0.10000000) 
        (0.00833333 0.01560807 0.10000000) 
        (0.01250000 0.01893247 0.10000000) 
        (0.01666667 0.02167527 0.10000000) 
        (0.02083333 0.02404400 0.10000000) 
        (0.02500000 0.02614510 0.10000000) 
        (0.02916667 0.02804182 0.10000000) 
        (0.03333333 0.02977538 0.10000000) 
        (0.03750000 0.03137342 0.10000000) 
        (0.04166667 0.03285776 0.10000000) 
        (0.04583333 0.03424452 0.10000000) 
        (0.05000000 0.03554589 0.10000000) 
        (0.05416667 0.03677159 0.10000000) 
        (0.05833333 0.03792951 0.10000000) 
        (0.06250000 0.03902620 0.10000000) 
        (0.06666667 0.04006710 0.10000000) 
        (0.07083333 0.04105660 0.10000000) 
        (0.07500000 0.04199867 0.10000000) 
        (0.07916667 0.04289709 0.10000000) 
        (0.08333333 0.04375483 0.10000000) 
        (0.08750000 0.04457454 0.10000000) 
        (0.09166667 0.04535853 0.10000000) 
        (0.09583333 0.04610887 0.10000000) 
        (0.10000000 0.04682744 0.10000000) 
        (0.10625000 0.04784883 0.10000000) 
        (0.11250000 0.04880767 0.10000000) 
        (0.11875000 0.04970811 0.10000000) 
        (0.12500000 0.05055346 0.10000000) 
        (0.13125000 0.05134773 0.10000000) 
        (0.13750000 0.05209383 0.10000000) 
        (0.14375000 0.05279382 0.10000000) 
        (0.15000000 0.05345075 0.10000000) 
        (0.15625000 0.05406676 0.10000000) 
        (0.16250000 0.05464331 0.10000000) 
        (0.16875000 0.05518266 0.10000000) 
        (0.17500000 0.05568651 0.10000000) 
        (0.18125000 0.05615598 0.10000000) 
        (0.18750000 0.05659275 0.10000000) 
        (0.19375000 0.05699821 0.10000000) 
        (0.20000000 0.05737331 0.10000000) 
        (0.20625000 0.05771928 0.10000000) 
        (0.21250000 0.05803732 0.10000000) 
        (0.21875000 0.05832823 0.10000000) 
        (0.22500000 0.05859293 0.10000000) 
        (0.23125000 0.05883248 0.10000000) 
        (0.23750000 0.05904758 0.10000000) 
        (0.24375000 0.05923890 0.10000000) 
        ) 
    spline 23 17 ( 
        (0.25000000 -0.05940741 0.10000000) 
        (0.26333333 -0.05969336 0.10000000) 
        (0.27666667 -0.05988439 0.10000000) 
        (0.29000000 -0.05998615 0.10000000) 
        (0.30333333 -0.06000378 0.10000000) 
        (0.31666667 -0.05994197 0.10000000) 
        (0.33000000 -0.05980501 0.10000000) 
        (0.34333333 -0.05959686 0.10000000) 
        (0.35666667 -0.05932116 0.10000000) 
        (0.37000000 -0.05898128 0.10000000) 
        (0.38333333 -0.05858037 0.10000000) 
        (0.39666667 -0.05812134 0.10000000) 
        (0.41000000 -0.05760691 0.10000000) 
        (0.42333333 -0.05703960 0.10000000) 
        (0.43666667 -0.05642179 0.10000000) 
        (0.45000000 -0.05575569 0.10000000) 
        (0.46333333 -0.05504336 0.10000000) 
        (0.47666667 -0.05428675 0.10000000) 
        (0.49000000 -0.05348767 0.10000000) 
        (0.50333333 -0.05264780 0.10000000) 
        (0.51666667 -0.05176872 0.10000000) 
        (0.53000000 -0.05085192 0.10000000) 
        (0.54333333 -0.04989877 0.10000000) 
        (0.55666667 -0.04891055 0.10000000) 
        (0.57000000 -0.04788845 0.10000000) 
        (0.58333333 -0.04683356 0.10000000) 
        (0.59666667 -0.04574690 0.10000000) 
        (0.61000000 -0.04462940 0.10000000) 
        (0.62333333 -0.04348192 0.10000000) 
        (0.63666667 -0.04230523 0.10000000) 
        (0.65000000 -0.04110003 0.10000000) 
        (0.65833333 -0.04033259 0.10000000) 
        (0.66666667 -0.03955437 0.10000000) 
        (0.67500000 -0.03876556 0.10000000) 
        (0.68333333 -0.03796625 0.10000000) 
        (0.69166667 -0.03715655 0.10000000) 
        (0.70000000 -0.03633651 0.10000000) 
        (0.70833333 -0.03550628 0.10000000) 
        (0.71666667 -0.03466594 0.10000000) 
        (0.72500000 -0.03381553 0.10000000) 
        (0.73333333 -0.03295508 0.10000000) 
        (0.74166667 -0.03208468 0.10000000) 
        (0.75000000 -0.03120437 0.10000000) 
        (0.75833333 -0.03031418 0.10000000) 
        (0.76666667 -0.02941407 0.10000000) 
        (0.77500000 -0.02850412 0.10000000) 
        (0.78333333 -0.02758431 0.10000000) 
        (0.79166667 -0.02665465 0.10000000) 
        (0.80000000 -0.02571506 0.10000000) 
        (0.80833333 -0.02476557 0.10000000) 
        (0.81666667 -0.02380613 0.10000000) 
        (0.82500000 -0.02283672 0.10000000) 
        (0.83333333 -0.02185724 0.10000000) 
        (0.84166667 -0.02086763 0.10000000) 
        (0.85000000 -0.01986787 0.10000000) 
        (0.85833333 -0.01885786 0.10000000) 
        (0.86666667 -0.01783748 0.10000000) 
        (0.87500000 -0.01680665 0.10000000) 
        (0.88333333 -0.01576529 0.10000000) 
        (0.89166667 -0.01471328 0.10000000) 
        (0.90000000 -0.01365047 0.10000000) 
        (0.90833333 -0.01257673 0.10000000) 
        (0.91666667 -0.01149196 0.10000000) 
        (0.92500000 -0.01039600 0.10000000) 
        (0.93333333 -0.00928868 0.10000000) 
        (0.94166667 -0.00816981 0.10000000) 
        (0.95000000 -0.00703928 0.10000000) 
        (0.95833333 -0.00589689 0.10000000) 
        (0.96666667 -0.00474245 0.10000000) 
        (0.97500000 -0.00357571 0.10000000) 
        (0.98333333 -0.00239653 0.10000000) 
        (0.99166667 -0.00120470 0.10000000) 
        (1.00000000 0.00000000 0.10000000) 
        ) 
    spline 14 17 ( 
        (0.25000000 0.05940741 0.10000000) 
        (0.26333333 0.05969336 0.10000000) 
        (0.27666667 0.05988439 0.10000000) 
        (0.29000000 0.05998615 0.10000000) 
        (0.30333333 0.06000378 0.10000000) 
        (0.31666667 0.05994197 0.10000000) 
        (0.33000000 0.05980501 0.10000000) 
        (0.34333333 0.05959686 0.10000000) 
        (0.35666667 0.05932116 0.10000000) 
        (0.37000000 0.05898128 0.10000000) 
        (0.38333333 0.05858037 0.10000000) 
        (0.39666667 0.05812134 0.10000000) 
        (0.41000000 0.05760691 0.10000000) 
        (0.42333333 0.05703960 0.10000000) 
        (0.43666667 0.05642179 0.10000000) 
        (0.45000000 0.05575569 0.10000000) 
        (0.46333333 0.05504336 0.10000000) 
        (0.47666667 0.05428675 0.10000000) 
        (0.49000000 0.05348767 0.10000000) 
        (0.50333333 0.05264780 0.10000000) 
        (0.51666667 0.05176872 0.10000000) 
        (0.53000000 0.05085192 0.10000000) 
        (0.54333333 0.04989877 0.10000000) 
        (0.55666667 0.04891055 0.10000000) 
        (0.57000000 0.04788845 0.10000000) 
        (0.58333333 0.04683356 0.10000000) 
        (0.59666667 0.04574690 0.10000000) 
        (0.61000000 0.04462940 0.10000000) 
        (0.62333333 0.04348192 0.10000000) 
        (0.63666667 0.04230523 0.10000000) 
        (0.65000000 0.04110003 0.10000000) 
        (0.65833333 0.04033259 0.10000000) 
        (0.66666667 0.03955437 0.10000000) 
        (0.67500000 0.03876556 0.10000000) 
        (0.68333333 0.03796625 0.10000000) 
        (0.69166667 0.03715655 0.10000000) 
        (0.70000000 0.03633651 0.10000000) 
        (0.70833333 0.03550628 0.10000000) 
        (0.71666667 0.03466594 0.10000000) 
        (0.72500000 0.03381553 0.10000000) 
        (0.73333333 0.03295508 0.10000000) 
        (0.74166667 0.03208468 0.10000000) 
        (0.75000000 0.03120437 0.10000000) 
        (0.75833333 0.03031418 0.10000000) 
        (0.76666667 0.02941407 0.10000000) 
        (0.77500000 0.02850412 0.10000000) 
        (0.78333333 0.02758431 0.10000000) 
        (0.79166667 0.02665465 0.10000000) 
        (0.80000000 0.02571506 0.10000000) 
        (0.80833333 0.02476557 0.10000000) 
        (0.81666667 0.02380613 0.10000000) 
        (0.82500000 0.02283672 0.10000000) 
        (0.83333333 0.02185724 0.10000000) 
        (0.84166667 0.02086763 0.10000000) 
        (0.85000000 0.01986787 0.10000000) 
        (0.85833333 0.01885786 0.10000000) 
        (0.86666667 0.01783748 0.10000000) 
        (0.87500000 0.01680665 0.10000000) 
        (0.88333333 0.01576529 0.10000000) 
        (0.89166667 0.01471328 0.10000000) 
        (0.90000000 0.01365047 0.10000000) 
        (0.90833333 0.01257673 0.10000000) 
        (0.91666667 0.01149196 0.10000000) 
        (0.92500000 0.01039600 0.10000000) 
        (0.93333333 0.00928868 0.10000000) 
        (0.94166667 0.00816981 0.10000000) 
        (0.95000000 0.00703928 0.10000000) 
        (0.95833333 0.00589689 0.10000000) 
        (0.96666667 0.00474245 0.10000000) 
        (0.97500000 0.00357571 0.10000000) 
        (0.98333333 0.00239653 0.10000000) 
        (0.99166667 0.00120470 0.10000000) 
        (1.00000000 -0.00000000 0.10000000) 
        ) 
); 

boundary 
( 
    inlet 
    { 
        type patch; 
        faces 
        ( 
            (3 15 12 0) 
            (0 12 22 10) 
            (10 22 21 9) 
            (9 21 20 8) 
        ); 
    } 
    outlet 
    { 
        type patch; 
        faces 
        ( 
            (15 3 4 16) 
            (16 4 6 18) 
            (18 6 7 19) 
            (19 7 8 20) 
        ); 
    } 
    airfoil 
    { 
        type patch; 
        faces 
        ( 
            (2 14 17 5) 
            (5 17 23 11) 
            (13 1 11 23) 
            (14 2 1 13) 
        ); 
    } 
    frontAndBack 
    { 
        type empty; 
        faces 
        ( 
            (15 14 13 12) 
            (15 16 17 14) 
            (16 18 19 17) 
            (17 19 20 21) 
            (23 17 21 22) 
            (12 13 23 22) 
            (2 3 0 1) 
            (4 3 2 5) 
            (6 4 7 5) 
            (1 0 10 11) 
            (11 10 9 5) 
            (5 9 8 7) 
        ); 
    } 
); 
