/*--------------------------------*- C++ -*----------------------------------*\ 
| =========                 |                                                 | 
| \      /  F ield         | OpenFOAM: The Open Source CFD Toolbox           | 
|  \    /   O peration     | Version:  5                                     | 
|   \  /    A nd           | Web:      www.OpenFOAM.org                      | 
|    \/     M anipulation  |                                                 | 
\*---------------------------------------------------------------------------*/ 

FoamFile 
{ 
    version     2.0; 
    format      ascii; 
    class       dictionary; 
    object      blockMeshDict;; 
} 
// * * * * * * * * * * * * * * * * * * * * * * * * * * * * * * * * * * * * * // 

convertToMeters 1; 

vertices 
( 
    (-3.00000000 0.00000000 0.00000000) 
    (0.00000000 0.00000000 0.00000000) 
    (0.25000000 0.07668975 0.00000000) 
    (0.25000000 3.00000000 0.00000000) 
    (1.00000000 3.00000000 0.00000000) 
    (1.00000000 0.00000000 0.00000000) 
    (7.00000000 3.00000000 0.00000000) 
    (7.00000000 0.00000000 0.00000000) 
    (7.00000000 -3.00000000 0.00000000) 
    (1.00000000 -3.00000000 0.00000000) 
    (0.25000000 -3.00000000 0.00000000) 
    (0.25000000 -0.04220393 0.00000000) 
    (-3.00000000 0.00000000 0.10000000) 
    (0.00000000 0.00000000 0.10000000) 
    (0.25000000 0.07668975 0.10000000) 
    (0.25000000 3.00000000 0.10000000) 
    (1.00000000 3.00000000 0.10000000) 
    (1.00000000 0.00000000 0.10000000) 
    (7.00000000 3.00000000 0.10000000) 
    (7.00000000 0.00000000 0.10000000) 
    (7.00000000 -3.00000000 0.10000000) 
    (1.00000000 -3.00000000 0.10000000) 
    (0.25000000 -3.00000000 0.10000000) 
    (0.25000000 -0.04220393 0.10000000) 
); 

blocks 
( 
    hex (1 2 3 0 13 14 15 12) (60 40 1) simpleGrading
    ( 
     ( 
     (0.100 0.180 3.000) 
     (0.150 0.120 1.500) 
     ) 
     ( 
     (0.022 0.375 49.276) 
     (0.978 0.625 30.000) 
     ) 
    1.000 
    ) 
    hex (2 5 4 3 14 17 16 15) (50 40 1) simpleGrading
    ( 
     ( 
     (0.375 0.400 1.800) 
     (0.375 0.300 0.800) 
     ) 
     ( 
     (0.022 0.375 49.276) 
     (0.978 0.625 30.000) 
     ) 
    1.000 
    ) 
    hex (5 7 6 4 17 19 18 16) (350 40 1) simpleGrading
    ( 
    2.000 
     ( 
     (0.022 0.375 49.276) 
     (0.978 0.625 30.000) 
     ) 
    1.000 
    ) 
    hex (13 23 22 12 1 11 10 0) (60 40 1) simpleGrading
    ( 
     ( 
     (0.100 0.180 3.000) 
     (0.150 0.120 1.500) 
     ) 
     ( 
     (0.022 0.375 49.276) 
     (0.978 0.625 30.000) 
     ) 
    1.000 
    ) 
    hex (23 17 21 22 11 5 9 10) (50 40 1) simpleGrading
    ( 
     ( 
     (0.375 0.400 1.800) 
     (0.375 0.300 0.800) 
     ) 
     ( 
     (0.022 0.375 49.276) 
     (0.978 0.625 30.000) 
     ) 
    1.000 
    ) 
    hex (17 19 20 21 5 7 8 9) (350 40 1) simpleGrading
    ( 
    2.000 
     ( 
     (0.022 0.375 49.276) 
     (0.978 0.625 30.000) 
     ) 
    1.000 
    ) 
); 

edges 
( 
    arc 0 3   (-2.12132034 2.12132034 0.00000000) 
    arc 12 15 (-2.12132034 2.12132034 0.10000000) 
    arc 0 10  (-2.12132034 -2.12132034 0.00000000) 
    arc 12 22 (-2.12132034 -2.12132034 0.10000000) 
    spline 1 11 ( 
        (0.00000000 0.00000000 0.00000000) 
        (0.00027729 -0.00175868 0.00000000) 
        (0.00055613 -0.00285534 0.00000000) 
        (0.00083653 -0.00372181 0.00000000) 
        (0.00111849 -0.00445976 0.00000000) 
        (0.00140204 -0.00511277 0.00000000) 
        (0.00168717 -0.00570437 0.00000000) 
        (0.00197389 -0.00624890 0.00000000) 
        (0.00226222 -0.00675590 0.00000000) 
        (0.00255216 -0.00723211 0.00000000) 
        (0.00284372 -0.00768245 0.00000000) 
        (0.00313691 -0.00811067 0.00000000) 
        (0.00343174 -0.00851973 0.00000000) 
        (0.00372822 -0.00891196 0.00000000) 
        (0.00402636 -0.00928926 0.00000000) 
        (0.00432616 -0.00965323 0.00000000) 
        (0.00462764 -0.01000517 0.00000000) 
        (0.00493081 -0.01034621 0.00000000) 
        (0.00523567 -0.01064860 0.00000000) 
        (0.00554224 -0.01092230 0.00000000) 
        (0.00585052 -0.01119753 0.00000000) 
        (0.00616053 -0.01147429 0.00000000) 
        (0.00647227 -0.01175261 0.00000000) 
        (0.00678575 -0.01203248 0.00000000) 
        (0.00710099 -0.01231391 0.00000000) 
        (0.00741799 -0.01259692 0.00000000) 
        (0.00773676 -0.01288152 0.00000000) 
        (0.00805732 -0.01316770 0.00000000) 
        (0.00837966 -0.01345549 0.00000000) 
        (0.00870381 -0.01374488 0.00000000) 
        (0.00902978 -0.01403589 0.00000000) 
        (0.00935756 -0.01432853 0.00000000) 
        (0.00968718 -0.01457868 0.00000000) 
        (0.01001864 -0.01479901 0.00000000) 
        (0.01035196 -0.01502056 0.00000000) 
        (0.01068714 -0.01524336 0.00000000) 
        (0.01102419 -0.01546740 0.00000000) 
        (0.01136313 -0.01569269 0.00000000) 
        (0.01170397 -0.01591924 0.00000000) 
        (0.01204671 -0.01614706 0.00000000) 
        (0.01239136 -0.01637616 0.00000000) 
        (0.01273795 -0.01660653 0.00000000) 
        (0.01308647 -0.01683820 0.00000000) 
        (0.01343694 -0.01707116 0.00000000) 
        (0.01378938 -0.01730542 0.00000000) 
        (0.01414378 -0.01749794 0.00000000) 
        (0.01450016 -0.01769103 0.00000000) 
        (0.01485854 -0.01788520 0.00000000) 
        (0.01521892 -0.01808045 0.00000000) 
        (0.01558132 -0.01827679 0.00000000) 
        (0.01594574 -0.01847423 0.00000000) 
        (0.01631221 -0.01867278 0.00000000) 
        (0.01668072 -0.01887244 0.00000000) 
        (0.01705129 -0.01907321 0.00000000) 
        (0.01742393 -0.01927510 0.00000000) 
        (0.01779866 -0.01947813 0.00000000) 
        (0.01817548 -0.01967079 0.00000000) 
        (0.01855442 -0.01984560 0.00000000) 
        (0.01893547 -0.02002138 0.00000000) 
        (0.01931865 -0.02019815 0.00000000) 
        (0.01970397 -0.02037590 0.00000000) 
        (0.02009145 -0.02055465 0.00000000) 
        (0.02048110 -0.02073440 0.00000000) 
        (0.02087292 -0.02091516 0.00000000) 
        (0.02126694 -0.02109692 0.00000000) 
        (0.02166316 -0.02127971 0.00000000) 
        (0.02206159 -0.02146351 0.00000000) 
        (0.02246225 -0.02163493 0.00000000) 
        (0.02286516 -0.02179736 0.00000000) 
        (0.02327032 -0.02196069 0.00000000) 
        (0.02367774 -0.02212494 0.00000000) 
        (0.02408744 -0.02229011 0.00000000) 
        (0.02449943 -0.02245620 0.00000000) 
        (0.02491373 -0.02262322 0.00000000) 
        (0.02533034 -0.02279117 0.00000000) 
        (0.02574929 -0.02296006 0.00000000) 
        (0.02617057 -0.02312990 0.00000000) 
        (0.02659421 -0.02329209 0.00000000) 
        (0.02702022 -0.02344479 0.00000000) 
        (0.02744862 -0.02359834 0.00000000) 
        (0.02787941 -0.02375275 0.00000000) 
        (0.02831261 -0.02390803 0.00000000) 
        (0.02874823 -0.02406417 0.00000000) 
        (0.02918628 -0.02422119 0.00000000) 
        (0.02962679 -0.02437909 0.00000000) 
        (0.03006976 -0.02453787 0.00000000) 
        (0.03051521 -0.02469753 0.00000000) 
        (0.03096315 -0.02484328 0.00000000) 
        (0.03141359 -0.02498861 0.00000000) 
        (0.03186655 -0.02513475 0.00000000) 
        (0.03232205 -0.02528172 0.00000000) 
        (0.03278009 -0.02542950 0.00000000) 
        (0.03324069 -0.02557811 0.00000000) 
        (0.03370387 -0.02572755 0.00000000) 
        (0.03416965 -0.02587783 0.00000000) 
        (0.03463802 -0.02602895 0.00000000) 
        (0.03510901 -0.02616819 0.00000000) 
        (0.03558264 -0.02630700 0.00000000) 
        (0.03605892 -0.02644659 0.00000000) 
        (0.03653786 -0.02658696 0.00000000) 
        (0.03701948 -0.02672812 0.00000000) 
        (0.03750379 -0.02687007 0.00000000) 
        (0.03799081 -0.02701281 0.00000000) 
        (0.03848056 -0.02715635 0.00000000) 
        (0.03897304 -0.02729618 0.00000000) 
        (0.03946828 -0.02742896 0.00000000) 
        (0.03996628 -0.02756249 0.00000000) 
        (0.04046707 -0.02769677 0.00000000) 
        (0.04097067 -0.02783179 0.00000000) 
        (0.04147708 -0.02796757 0.00000000) 
        (0.04198632 -0.02810411 0.00000000) 
        (0.04249840 -0.02824142 0.00000000) 
        (0.04301336 -0.02837691 0.00000000) 
        (0.04353119 -0.02850464 0.00000000) 
        (0.04405192 -0.02863307 0.00000000) 
        (0.04457556 -0.02876223 0.00000000) 
        (0.04510212 -0.02889211 0.00000000) 
        (0.04563164 -0.02902272 0.00000000) 
        (0.04616411 -0.02915405 0.00000000) 
        (0.04669956 -0.02928612 0.00000000) 
        (0.04723801 -0.02941415 0.00000000) 
        (0.04777946 -0.02953755 0.00000000) 
        (0.04832395 -0.02966165 0.00000000) 
        (0.04887148 -0.02978643 0.00000000) 
        (0.04942207 -0.02991192 0.00000000) 
        (0.04997574 -0.03003811 0.00000000) 
        (0.05053251 -0.03016500 0.00000000) 
        (0.05109239 -0.03029211 0.00000000) 
        (0.05165540 -0.03041110 0.00000000) 
        (0.05222156 -0.03053076 0.00000000) 
        (0.05279089 -0.03065109 0.00000000) 
        (0.05336340 -0.03077210 0.00000000) 
        (0.05393911 -0.03089378 0.00000000) 
        (0.05451805 -0.03101614 0.00000000) 
        (0.05510021 -0.03113918 0.00000000) 
        (0.05568564 -0.03125475 0.00000000) 
        (0.05627434 -0.03137048 0.00000000) 
        (0.05686633 -0.03148685 0.00000000) 
        (0.05746163 -0.03160388 0.00000000) 
        (0.05806026 -0.03172156 0.00000000) 
        (0.05866224 -0.03183990 0.00000000) 
        (0.05926758 -0.03195794 0.00000000) 
        (0.05987632 -0.03206951 0.00000000) 
        (0.06048845 -0.03218171 0.00000000) 
        (0.06110401 -0.03229453 0.00000000) 
        (0.06172301 -0.03240799 0.00000000) 
        (0.06234547 -0.03252208 0.00000000) 
        (0.06297141 -0.03263681 0.00000000) 
        (0.06360085 -0.03274795 0.00000000) 
        (0.06423382 -0.03285633 0.00000000) 
        (0.06487032 -0.03296533 0.00000000) 
        (0.06551038 -0.03307493 0.00000000) 
        (0.06615402 -0.03318514 0.00000000) 
        (0.06680126 -0.03329597 0.00000000) 
        (0.06745213 -0.03340573 0.00000000) 
        (0.06810663 -0.03351061 0.00000000) 
        (0.06876479 -0.03361607 0.00000000) 
        (0.06942663 -0.03372212 0.00000000) 
        (0.07009217 -0.03382877 0.00000000) 
        (0.07076143 -0.03393601 0.00000000) 
        (0.07143444 -0.03404291 0.00000000) 
        (0.07211121 -0.03414452 0.00000000) 
        (0.07279177 -0.03424671 0.00000000) 
        (0.07347613 -0.03434946 0.00000000) 
        (0.07416432 -0.03445279 0.00000000) 
        (0.07485635 -0.03455670 0.00000000) 
        (0.07555226 -0.03465956 0.00000000) 
        (0.07625206 -0.03475812 0.00000000) 
        (0.07695577 -0.03485723 0.00000000) 
        (0.07766342 -0.03495690 0.00000000) 
        (0.07837502 -0.03505713 0.00000000) 
        (0.07909061 -0.03515791 0.00000000) 
        (0.07981020 -0.03525580 0.00000000) 
        (0.08053381 -0.03535148 0.00000000) 
        (0.08126146 -0.03544770 0.00000000) 
        (0.08199319 -0.03554445 0.00000000) 
        (0.08272901 -0.03564175 0.00000000) 
        (0.08346894 -0.03573931 0.00000000) 
        (0.08421301 -0.03583174 0.00000000) 
        (0.08496124 -0.03592468 0.00000000) 
        (0.08571366 -0.03601815 0.00000000) 
        (0.08647028 -0.03611213 0.00000000) 
        (0.08723114 -0.03620665 0.00000000) 
        (0.08799625 -0.03629765 0.00000000) 
        (0.08876564 -0.03638747 0.00000000) 
        (0.08953933 -0.03647780 0.00000000) 
        (0.09031735 -0.03656863 0.00000000) 
        (0.09109972 -0.03665997 0.00000000) 
        (0.09188646 -0.03674893 0.00000000) 
        (0.09267761 -0.03683576 0.00000000) 
        (0.09347318 -0.03692307 0.00000000) 
        (0.09427319 -0.03701088 0.00000000) 
        (0.09507769 -0.03709917 0.00000000) 
        (0.09588668 -0.03718533 0.00000000) 
        (0.09670019 -0.03726928 0.00000000) 
        (0.09751826 -0.03735369 0.00000000) 
        (0.09834089 -0.03743858 0.00000000) 
        (0.09916813 -0.03752394 0.00000000) 
        (0.10000000 -0.03760667 0.00000000) 
        (0.10092142 -0.03769606 0.00000000) 
        (0.10184569 -0.03778572 0.00000000) 
        (0.10277282 -0.03787567 0.00000000) 
        (0.10370284 -0.03796472 0.00000000) 
        (0.10463573 -0.03804979 0.00000000) 
        (0.10557152 -0.03813512 0.00000000) 
        (0.10651020 -0.03822072 0.00000000) 
        (0.10745180 -0.03830658 0.00000000) 
        (0.10839632 -0.03838780 0.00000000) 
        (0.10934376 -0.03846898 0.00000000) 
        (0.11029414 -0.03855041 0.00000000) 
        (0.11124747 -0.03863209 0.00000000) 
        (0.11220375 -0.03871038 0.00000000) 
        (0.11316299 -0.03878757 0.00000000) 
        (0.11412521 -0.03886500 0.00000000) 
        (0.11509042 -0.03894267 0.00000000) 
        (0.11605861 -0.03901782 0.00000000) 
        (0.11702981 -0.03909116 0.00000000) 
        (0.11800402 -0.03916474 0.00000000) 
        (0.11898124 -0.03923854 0.00000000) 
        (0.11996150 -0.03931037 0.00000000) 
        (0.12094479 -0.03938001 0.00000000) 
        (0.12193114 -0.03944987 0.00000000) 
        (0.12292054 -0.03951994 0.00000000) 
        (0.12391301 -0.03958831 0.00000000) 
        (0.12490855 -0.03965437 0.00000000) 
        (0.12590718 -0.03972063 0.00000000) 
        (0.12690891 -0.03978709 0.00000000) 
        (0.12791374 -0.03985188 0.00000000) 
        (0.12892169 -0.03991446 0.00000000) 
        (0.12993276 -0.03997724 0.00000000) 
        (0.13094696 -0.04004021 0.00000000) 
        (0.13196431 -0.04010130 0.00000000) 
        (0.13298482 -0.04016052 0.00000000) 
        (0.13400848 -0.04021991 0.00000000) 
        (0.13503532 -0.04027949 0.00000000) 
        (0.13606535 -0.04033682 0.00000000) 
        (0.13709856 -0.04039275 0.00000000) 
        (0.13813498 -0.04044886 0.00000000) 
        (0.13917461 -0.04050514 0.00000000) 
        (0.14021747 -0.04055863 0.00000000) 
        (0.14126356 -0.04061137 0.00000000) 
        (0.14231289 -0.04066427 0.00000000) 
        (0.14336547 -0.04071735 0.00000000) 
        (0.14442132 -0.04076694 0.00000000) 
        (0.14548044 -0.04081657 0.00000000) 
        (0.14654284 -0.04086635 0.00000000) 
        (0.14760853 -0.04091549 0.00000000) 
        (0.14867753 -0.04096194 0.00000000) 
        (0.14974985 -0.04100853 0.00000000) 
        (0.15082548 -0.04105527 0.00000000) 
        (0.15190446 -0.04110033 0.00000000) 
        (0.15298677 -0.04114382 0.00000000) 
        (0.15407244 -0.04118745 0.00000000) 
        (0.15516148 -0.04123121 0.00000000) 
        (0.15625390 -0.04127217 0.00000000) 
        (0.15734969 -0.04131276 0.00000000) 
        (0.15844889 -0.04135348 0.00000000) 
        (0.15955150 -0.04139353 0.00000000) 
        (0.16065752 -0.04143117 0.00000000) 
        (0.16176697 -0.04146892 0.00000000) 
        (0.16287986 -0.04150679 0.00000000) 
        (0.16399620 -0.04154264 0.00000000) 
        (0.16511600 -0.04157750 0.00000000) 
        (0.16623927 -0.04161246 0.00000000) 
        (0.16736602 -0.04164715 0.00000000) 
        (0.16849627 -0.04167918 0.00000000) 
        (0.16963002 -0.04171131 0.00000000) 
        (0.17076729 -0.04174354 0.00000000) 
        (0.17190808 -0.04177395 0.00000000) 
        (0.17305240 -0.04180332 0.00000000) 
        (0.17420028 -0.04183277 0.00000000) 
        (0.17535171 -0.04186181 0.00000000) 
        (0.17650671 -0.04188846 0.00000000) 
        (0.17766529 -0.04191519 0.00000000) 
        (0.17882747 -0.04194201 0.00000000) 
        (0.17999324 -0.04196674 0.00000000) 
        (0.18116264 -0.04199081 0.00000000) 
        (0.18233565 -0.04201496 0.00000000) 
        (0.18351230 -0.04203814 0.00000000) 
        (0.18469260 -0.04205961 0.00000000) 
        (0.18587656 -0.04208115 0.00000000) 
        (0.18706419 -0.04210269 0.00000000) 
        (0.18825550 -0.04212160 0.00000000) 
        (0.18945050 -0.04214057 0.00000000) 
        (0.19064921 -0.04215960 0.00000000) 
        (0.19185163 -0.04217679 0.00000000) 
        (0.19305778 -0.04219325 0.00000000) 
        (0.19426767 -0.04220976 0.00000000) 
        (0.19548131 -0.04222518 0.00000000) 
        (0.19669872 -0.04223917 0.00000000) 
        (0.19791989 -0.04225321 0.00000000) 
        (0.19914485 -0.04226680 0.00000000) 
        (0.20037361 -0.04227837 0.00000000) 
        (0.20160618 -0.04228998 0.00000000) 
        (0.20284257 -0.04230162 0.00000000) 
        (0.20408279 -0.04231086 0.00000000) 
        (0.20532686 -0.04232007 0.00000000) 
        (0.20657478 -0.04232932 0.00000000) 
        (0.20782658 -0.04233665 0.00000000) 
        (0.20908225 -0.04234352 0.00000000) 
        (0.21034181 -0.04235041 0.00000000) 
        (0.21160528 -0.04235577 0.00000000) 
        (0.21287267 -0.04236034 0.00000000) 
        (0.21414398 -0.04236492 0.00000000) 
        (0.21541924 -0.04236826 0.00000000) 
        (0.21669845 -0.04237055 0.00000000) 
        (0.21798162 -0.04237286 0.00000000) 
        (0.21926878 -0.04237413 0.00000000) 
        (0.22055992 -0.04237420 0.00000000) 
        (0.22185506 -0.04237426 0.00000000) 
        (0.22315422 -0.04237343 0.00000000) 
        (0.22445741 -0.04237130 0.00000000) 
        (0.22576464 -0.04236916 0.00000000) 
        (0.22707592 -0.04236619 0.00000000) 
        (0.22839126 -0.04236190 0.00000000) 
        (0.22971068 -0.04235759 0.00000000) 
        (0.23103420 -0.04235245 0.00000000) 
        (0.23236181 -0.04234602 0.00000000) 
        (0.23369354 -0.04233957 0.00000000) 
        (0.23502940 -0.04233225 0.00000000) 
        (0.23636940 -0.04232372 0.00000000) 
        (0.23771355 -0.04231516 0.00000000) 
        (0.23906187 -0.04230563 0.00000000) 
        (0.24041437 -0.04229502 0.00000000) 
        (0.24177107 -0.04228439 0.00000000) 
        (0.24313196 -0.04227262 0.00000000) 
        (0.24449708 -0.04225998 0.00000000) 
        (0.24586643 -0.04224730 0.00000000) 
        (0.24724002 -0.04223329 0.00000000) 
        (0.24861788 -0.04221864 0.00000000) 
        ) 
    spline 1 2 ( 
        (0.00000000 0.00312364 0.00000000) 
        (0.00027729 0.00490207 0.00000000) 
        (0.00055613 0.00602820 0.00000000) 
        (0.00083653 0.00692890 0.00000000) 
        (0.00111849 0.00770394 0.00000000) 
        (0.00140204 0.00839607 0.00000000) 
        (0.00168717 0.00902831 0.00000000) 
        (0.00197389 0.00961474 0.00000000) 
        (0.00226222 0.01016471 0.00000000) 
        (0.00255216 0.01068478 0.00000000) 
        (0.00284372 0.01117980 0.00000000) 
        (0.00313691 0.01159128 0.00000000) 
        (0.00343174 0.01198004 0.00000000) 
        (0.00372822 0.01237098 0.00000000) 
        (0.00402636 0.01276410 0.00000000) 
        (0.00432616 0.01315942 0.00000000) 
        (0.00462764 0.01355695 0.00000000) 
        (0.00493081 0.01395670 0.00000000) 
        (0.00523567 0.01435869 0.00000000) 
        (0.00554224 0.01476293 0.00000000) 
        (0.00585052 0.01516943 0.00000000) 
        (0.00616053 0.01557820 0.00000000) 
        (0.00647227 0.01598926 0.00000000) 
        (0.00678575 0.01630888 0.00000000) 
        (0.00710099 0.01661883 0.00000000) 
        (0.00741799 0.01693051 0.00000000) 
        (0.00773676 0.01724394 0.00000000) 
        (0.00805732 0.01755911 0.00000000) 
        (0.00837966 0.01787605 0.00000000) 
        (0.00870381 0.01819476 0.00000000) 
        (0.00902978 0.01851526 0.00000000) 
        (0.00935756 0.01883754 0.00000000) 
        (0.00968718 0.01916163 0.00000000) 
        (0.01001864 0.01948753 0.00000000) 
        (0.01035196 0.01979092 0.00000000) 
        (0.01068714 0.02006440 0.00000000) 
        (0.01102419 0.02033941 0.00000000) 
        (0.01136313 0.02061596 0.00000000) 
        (0.01170397 0.02089406 0.00000000) 
        (0.01204671 0.02117372 0.00000000) 
        (0.01239136 0.02145493 0.00000000) 
        (0.01273795 0.02173772 0.00000000) 
        (0.01308647 0.02202209 0.00000000) 
        (0.01343694 0.02230805 0.00000000) 
        (0.01378938 0.02259561 0.00000000) 
        (0.01414378 0.02286622 0.00000000) 
        (0.01450016 0.02311949 0.00000000) 
        (0.01485854 0.02337417 0.00000000) 
        (0.01521892 0.02363028 0.00000000) 
        (0.01558132 0.02388782 0.00000000) 
        (0.01594574 0.02414681 0.00000000) 
        (0.01631221 0.02440724 0.00000000) 
        (0.01668072 0.02466912 0.00000000) 
        (0.01705129 0.02493248 0.00000000) 
        (0.01742393 0.02519730 0.00000000) 
        (0.01779866 0.02546135 0.00000000) 
        (0.01817548 0.02570113 0.00000000) 
        (0.01855442 0.02594226 0.00000000) 
        (0.01893547 0.02618473 0.00000000) 
        (0.01931865 0.02642857 0.00000000) 
        (0.01970397 0.02667376 0.00000000) 
        (0.02009145 0.02692033 0.00000000) 
        (0.02048110 0.02716827 0.00000000) 
        (0.02087292 0.02741760 0.00000000) 
        (0.02126694 0.02766833 0.00000000) 
        (0.02166316 0.02791680 0.00000000) 
        (0.02206159 0.02814791 0.00000000) 
        (0.02246225 0.02838031 0.00000000) 
        (0.02286516 0.02861401 0.00000000) 
        (0.02327032 0.02884902 0.00000000) 
        (0.02367774 0.02908535 0.00000000) 
        (0.02408744 0.02932299 0.00000000) 
        (0.02449943 0.02956197 0.00000000) 
        (0.02491373 0.02980228 0.00000000) 
        (0.02533034 0.03004393 0.00000000) 
        (0.02574929 0.03027360 0.00000000) 
        (0.02617057 0.03049913 0.00000000) 
        (0.02659421 0.03072593 0.00000000) 
        (0.02702022 0.03095400 0.00000000) 
        (0.02744862 0.03118334 0.00000000) 
        (0.02787941 0.03141397 0.00000000) 
        (0.02831261 0.03164588 0.00000000) 
        (0.02874823 0.03187909 0.00000000) 
        (0.02918628 0.03211361 0.00000000) 
        (0.02962679 0.03233823 0.00000000) 
        (0.03006976 0.03255911 0.00000000) 
        (0.03051521 0.03278122 0.00000000) 
        (0.03096315 0.03300458 0.00000000) 
        (0.03141359 0.03322919 0.00000000) 
        (0.03186655 0.03345505 0.00000000) 
        (0.03232205 0.03368218 0.00000000) 
        (0.03278009 0.03391058 0.00000000) 
        (0.03324069 0.03413923 0.00000000) 
        (0.03370387 0.03435584 0.00000000) 
        (0.03416965 0.03457367 0.00000000) 
        (0.03463802 0.03479272 0.00000000) 
        (0.03510901 0.03501300 0.00000000) 
        (0.03558264 0.03523450 0.00000000) 
        (0.03605892 0.03545724 0.00000000) 
        (0.03653786 0.03568123 0.00000000) 
        (0.03701948 0.03590648 0.00000000) 
        (0.03750379 0.03612240 0.00000000) 
        (0.03799081 0.03633720 0.00000000) 
        (0.03848056 0.03655319 0.00000000) 
        (0.03897304 0.03677039 0.00000000) 
        (0.03946828 0.03698881 0.00000000) 
        (0.03996628 0.03720845 0.00000000) 
        (0.04046707 0.03742932 0.00000000) 
        (0.04097067 0.03765142 0.00000000) 
        (0.04147708 0.03786405 0.00000000) 
        (0.04198632 0.03807678 0.00000000) 
        (0.04249840 0.03829070 0.00000000) 
        (0.04301336 0.03850581 0.00000000) 
        (0.04353119 0.03872213 0.00000000) 
        (0.04405192 0.03893966 0.00000000) 
        (0.04457556 0.03915840 0.00000000) 
        (0.04510212 0.03937497 0.00000000) 
        (0.04563164 0.03958523 0.00000000) 
        (0.04616411 0.03979667 0.00000000) 
        (0.04669956 0.04000928 0.00000000) 
        (0.04723801 0.04022309 0.00000000) 
        (0.04777946 0.04043809 0.00000000) 
        (0.04832395 0.04065430 0.00000000) 
        (0.04887148 0.04087163 0.00000000) 
        (0.04942207 0.04108006 0.00000000) 
        (0.04997574 0.04128966 0.00000000) 
        (0.05053251 0.04150043 0.00000000) 
        (0.05109239 0.04171238 0.00000000) 
        (0.05165540 0.04192551 0.00000000) 
        (0.05222156 0.04213984 0.00000000) 
        (0.05279089 0.04235536 0.00000000) 
        (0.05336340 0.04256273 0.00000000) 
        (0.05393911 0.04277102 0.00000000) 
        (0.05451805 0.04298048 0.00000000) 
        (0.05510021 0.04319110 0.00000000) 
        (0.05568564 0.04340291 0.00000000) 
        (0.05627434 0.04361590 0.00000000) 
        (0.05686633 0.04382829 0.00000000) 
        (0.05746163 0.04403456 0.00000000) 
        (0.05806026 0.04424199 0.00000000) 
        (0.05866224 0.04445057 0.00000000) 
        (0.05926758 0.04466032 0.00000000) 
        (0.05987632 0.04487125 0.00000000) 
        (0.06048845 0.04508335 0.00000000) 
        (0.06110401 0.04529098 0.00000000) 
        (0.06172301 0.04549676 0.00000000) 
        (0.06234547 0.04570369 0.00000000) 
        (0.06297141 0.04591177 0.00000000) 
        (0.06360085 0.04612102 0.00000000) 
        (0.06423382 0.04633144 0.00000000) 
        (0.06487032 0.04654030 0.00000000) 
        (0.06551038 0.04674475 0.00000000) 
        (0.06615402 0.04695035 0.00000000) 
        (0.06680126 0.04715710 0.00000000) 
        (0.06745213 0.04736501 0.00000000) 
        (0.06810663 0.04757408 0.00000000) 
        (0.06876479 0.04778260 0.00000000) 
        (0.06942663 0.04798601 0.00000000) 
        (0.07009217 0.04819056 0.00000000) 
        (0.07076143 0.04839625 0.00000000) 
        (0.07143444 0.04860309 0.00000000) 
        (0.07211121 0.04881109 0.00000000) 
        (0.07279177 0.04901799 0.00000000) 
        (0.07347613 0.04922059 0.00000000) 
        (0.07416432 0.04942432 0.00000000) 
        (0.07485635 0.04962919 0.00000000) 
        (0.07555226 0.04983521 0.00000000) 
        (0.07625206 0.05004237 0.00000000) 
        (0.07695577 0.05024656 0.00000000) 
        (0.07766342 0.05044855 0.00000000) 
        (0.07837502 0.05065166 0.00000000) 
        (0.07909061 0.05085592 0.00000000) 
        (0.07981020 0.05106131 0.00000000) 
        (0.08053381 0.05126786 0.00000000) 
        (0.08126146 0.05146838 0.00000000) 
        (0.08199319 0.05166993 0.00000000) 
        (0.08272901 0.05187261 0.00000000) 
        (0.08346894 0.05207642 0.00000000) 
        (0.08421301 0.05228136 0.00000000) 
        (0.08496124 0.05248335 0.00000000) 
        (0.08571366 0.05268349 0.00000000) 
        (0.08647028 0.05288475 0.00000000) 
        (0.08723114 0.05308713 0.00000000) 
        (0.08799625 0.05329065 0.00000000) 
        (0.08876564 0.05349304 0.00000000) 
        (0.08953933 0.05369191 0.00000000) 
        (0.09031735 0.05389188 0.00000000) 
        (0.09109972 0.05409298 0.00000000) 
        (0.09188646 0.05429520 0.00000000) 
        (0.09267761 0.05449707 0.00000000) 
        (0.09347318 0.05469478 0.00000000) 
        (0.09427319 0.05489359 0.00000000) 
        (0.09507769 0.05509352 0.00000000) 
        (0.09588668 0.05529457 0.00000000) 
        (0.09670019 0.05549509 0.00000000) 
        (0.09751826 0.05569174 0.00000000) 
        (0.09834089 0.05588949 0.00000000) 
        (0.09916813 0.05608834 0.00000000) 
        (0.10000000 0.05628831 0.00000000) 
        (0.10092142 0.05650649 0.00000000) 
        (0.10184569 0.05672149 0.00000000) 
        (0.10277282 0.05693715 0.00000000) 
        (0.10370284 0.05715348 0.00000000) 
        (0.10463573 0.05736945 0.00000000) 
        (0.10557152 0.05758015 0.00000000) 
        (0.10651020 0.05779152 0.00000000) 
        (0.10745180 0.05800353 0.00000000) 
        (0.10839632 0.05821621 0.00000000) 
        (0.10934376 0.05842351 0.00000000) 
        (0.11029414 0.05863071 0.00000000) 
        (0.11124747 0.05883855 0.00000000) 
        (0.11220375 0.05904704 0.00000000) 
        (0.11316299 0.05925166 0.00000000) 
        (0.11412521 0.05945483 0.00000000) 
        (0.11509042 0.05965862 0.00000000) 
        (0.11605861 0.05986305 0.00000000) 
        (0.11702981 0.06006471 0.00000000) 
        (0.11800402 0.06026395 0.00000000) 
        (0.11898124 0.06046381 0.00000000) 
        (0.11996150 0.06066429 0.00000000) 
        (0.12094479 0.06086273 0.00000000) 
        (0.12193114 0.06105815 0.00000000) 
        (0.12292054 0.06125417 0.00000000) 
        (0.12391301 0.06145080 0.00000000) 
        (0.12490855 0.06164579 0.00000000) 
        (0.12590718 0.06183747 0.00000000) 
        (0.12690891 0.06202974 0.00000000) 
        (0.12791374 0.06222261 0.00000000) 
        (0.12892169 0.06241393 0.00000000) 
        (0.12993276 0.06260195 0.00000000) 
        (0.13094696 0.06279055 0.00000000) 
        (0.13196431 0.06297974 0.00000000) 
        (0.13298482 0.06316717 0.00000000) 
        (0.13400848 0.06335160 0.00000000) 
        (0.13503532 0.06353660 0.00000000) 
        (0.13606535 0.06372218 0.00000000) 
        (0.13709856 0.06390554 0.00000000) 
        (0.13813498 0.06408644 0.00000000) 
        (0.13917461 0.06426790 0.00000000) 
        (0.14021747 0.06444992 0.00000000) 
        (0.14126356 0.06462902 0.00000000) 
        (0.14231289 0.06480644 0.00000000) 
        (0.14336547 0.06498441 0.00000000) 
        (0.14442132 0.06516293 0.00000000) 
        (0.14548044 0.06533761 0.00000000) 
        (0.14654284 0.06551159 0.00000000) 
        (0.14760853 0.06568612 0.00000000) 
        (0.14867753 0.06586119 0.00000000) 
        (0.14974985 0.06603126 0.00000000) 
        (0.15082548 0.06620185 0.00000000) 
        (0.15190446 0.06637298 0.00000000) 
        (0.15298677 0.06654323 0.00000000) 
        (0.15407244 0.06670994 0.00000000) 
        (0.15516148 0.06687717 0.00000000) 
        (0.15625390 0.06704492 0.00000000) 
        (0.15734969 0.06721020 0.00000000) 
        (0.15844889 0.06737359 0.00000000) 
        (0.15955150 0.06753749 0.00000000) 
        (0.16065752 0.06770190 0.00000000) 
        (0.16176697 0.06786205 0.00000000) 
        (0.16287986 0.06802214 0.00000000) 
        (0.16399620 0.06818273 0.00000000) 
        (0.16511600 0.06834238 0.00000000) 
        (0.16623927 0.06849870 0.00000000) 
        (0.16736602 0.06865552 0.00000000) 
        (0.16849627 0.06881281 0.00000000) 
        (0.16963002 0.06896700 0.00000000) 
        (0.17076729 0.06912007 0.00000000) 
        (0.17190808 0.06927362 0.00000000) 
        (0.17305240 0.06942687 0.00000000) 