/*--------------------------------*- C++ -*----------------------------------*\
| =========                 |                                                 |
| \\      /  F ield         | OpenFOAM: The Open Source CFD Toolbox           |
|  \\    /   O peration     | Version:  5.x                                   |
|   \\  /    A nd           | Web:      www.OpenFOAM.org                      |
|    \\/     M anipulation  |                                                 |
\*---------------------------------------------------------------------------*/
FoamFile
{
    version     2.0;
    format      ascii;
    class       polyBoundaryMesh;
    location    "constant/polyMesh";
    object      boundary;
}
// * * * * * * * * * * * * * * * * * * * * * * * * * * * * * * * * * * * * * //

6
(
    inlet
    {
        type            patch;
        nFaces          144;
        startFace       112710;
    }
    outlet
    {
        type            patch;
        nFaces          144;
        startFace       112854;
    }
    wall
    {
        type            wall;
        inGroups        1(wall);
        nFaces          120;
        startFace       112998;
    }
    lower
    {
        type            patch;
        nFaces          366;
        startFace       113118;
    }
    upper
    {
        type            patch;
        nFaces          366;
        startFace       113484;
    }
    defaultFaces
    {
        type            empty;
        inGroups        1(empty);
        nFaces          113280;
        startFace       113850;
    }
)

// ************************************************************************* //
