/*--------------------------------*- C++ -*----------------------------------*\ 
| =========                 |                                                 | 
| \      /  F ield         | OpenFOAM: The Open Source CFD Toolbox           | 
|  \    /   O peration     | Version:  5                                     | 
|   \  /    A nd           | Web:      www.OpenFOAM.org                      | 
|    \/     M anipulation  |                                                 | 
\*---------------------------------------------------------------------------*/ 

FoamFile 
{ 
    version     2.0; 
    format      ascii; 
    class       dictionary; 
    object      blockMeshDict;; 
} 
// * * * * * * * * * * * * * * * * * * * * * * * * * * * * * * * * * * * * * // 

convertToMeters 1; 

vertices 
( 
    (0.00 -0.01 0.00) 
    (1.00 -0.01 0.00) 
    (1.00 0.01 0.00) 
    (0.00 0.01 0.00) 
    (0.00 -0.01 0.01) 
    (1.00 -0.01 0.01) 
    (1.00 0.01 0.01) 
    (0.00 0.01 0.01) 
); 

blocks 
( 
    hex (0 1 2 3 4 5 6 7) (250 10 1) simpleGrading 
    ( 
     ( 
     (0.100 0.300 20.000) 
     (0.200 0.150 1.000) 
     (0.400 0.300 1.000) 
     (0.300 0.250 0.600) 
     ) 
    1 
    1 
    ) 
); 

edges 
( 
    spline 0 1 ( 
        (0.00000000 -0.01000000 0.00000000) 
        (0.00020838 -0.01142259 0.00000000) 
        (0.00042536 -0.01238147 0.00000000) 
        (0.00065131 -0.01316871 0.00000000) 
        (0.00088660 -0.01386092 0.00000000) 
        (0.00113161 -0.01449168 0.00000000) 
        (0.00138673 -0.01507934 0.00000000) 
        (0.00165240 -0.01563516 0.00000000) 
        (0.00192905 -0.01616660 0.00000000) 
        (0.00221712 -0.01667896 0.00000000) 
        (0.00251709 -0.01717612 0.00000000) 
        (0.00282946 -0.01766102 0.00000000) 
        (0.00315473 -0.01813599 0.00000000) 
        (0.00349344 -0.01860286 0.00000000) 
        (0.00384615 -0.01906314 0.00000000) 
        (0.00421342 -0.01951807 0.00000000) 
        (0.00459587 -0.01996870 0.00000000) 
        (0.00499412 -0.02041590 0.00000000) 
        (0.00540882 -0.02080318 0.00000000) 
        (0.00584066 -0.02118872 0.00000000) 
        (0.00629033 -0.02159018 0.00000000) 
        (0.00675858 -0.02200822 0.00000000) 
        (0.00724618 -0.02244354 0.00000000) 
        (0.00775392 -0.02289684 0.00000000) 
        (0.00828264 -0.02336887 0.00000000) 
        (0.00883320 -0.02386040 0.00000000) 
        (0.00940651 -0.02437223 0.00000000) 
        (0.01000351 -0.02478895 0.00000000) 
        (0.01062516 -0.02520216 0.00000000) 
        (0.01127250 -0.02563245 0.00000000) 
        (0.01194659 -0.02608051 0.00000000) 
        (0.01264852 -0.02654709 0.00000000) 
        (0.01337945 -0.02703294 0.00000000) 
        (0.01414058 -0.02749621 0.00000000) 
        (0.01493315 -0.02792562 0.00000000) 
        (0.01575847 -0.02837277 0.00000000) 
        (0.01661789 -0.02883839 0.00000000) 
        (0.01751281 -0.02932326 0.00000000) 
        (0.01844470 -0.02979498 0.00000000) 
        (0.01941509 -0.03024264 0.00000000) 
        (0.02042557 -0.03070879 0.00000000) 
        (0.02147780 -0.03119420 0.00000000) 
        (0.02257350 -0.03167978 0.00000000) 
        (0.02371447 -0.03213975 0.00000000) 
        (0.02490257 -0.03261872 0.00000000) 
        (0.02613976 -0.03311748 0.00000000) 
        (0.02742806 -0.03359097 0.00000000) 
        (0.02876959 -0.03407183 0.00000000) 
        (0.03016654 -0.03457255 0.00000000) 
        (0.03162120 -0.03505559 0.00000000) 
        (0.03313596 -0.03554432 0.00000000) 
        (0.03471330 -0.03605220 0.00000000) 
        (0.03635580 -0.03653360 0.00000000) 
        (0.03806616 -0.03703489 0.00000000) 
        (0.03984719 -0.03753056 0.00000000) 
        (0.04170179 -0.03802783 0.00000000) 
        (0.04363301 -0.03852975 0.00000000) 
        (0.04564402 -0.03902577 0.00000000) 
        (0.04773811 -0.03952813 0.00000000) 
        (0.04991871 -0.04002511 0.00000000) 
        (0.05218941 -0.04052397 0.00000000) 
        (0.05455391 -0.04102372 0.00000000) 
        (0.05701610 -0.04151629 0.00000000) 
        (0.05958001 -0.04201520 0.00000000) 
        (0.06224984 -0.04250455 0.00000000) 
        (0.06502998 -0.04299267 0.00000000) 
        (0.06792497 -0.04348150 0.00000000) 
        (0.07093956 -0.04396455 0.00000000) 
        (0.07407870 -0.04443994 0.00000000) 
        (0.07734753 -0.04491241 0.00000000) 
        (0.08075140 -0.04538025 0.00000000) 
        (0.08429590 -0.04584204 0.00000000) 
        (0.08798683 -0.04629655 0.00000000) 
        (0.09183025 -0.04674276 0.00000000) 
        (0.09583245 -0.04717974 0.00000000) 
        (0.10000000 -0.04760667 0.00000000) 
        (0.10526316 -0.04810700 0.00000000) 
        (0.11052632 -0.04857030 0.00000000) 
        (0.11578947 -0.04899749 0.00000000) 
        (0.12105263 -0.04938765 0.00000000) 
        (0.12631579 -0.04974774 0.00000000) 
        (0.13157895 -0.05007894 0.00000000) 
        (0.13684211 -0.05037887 0.00000000) 
        (0.14210526 -0.05065381 0.00000000) 
        (0.14736842 -0.05090504 0.00000000) 
        (0.15263158 -0.05112955 0.00000000) 
        (0.15789474 -0.05133295 0.00000000) 
        (0.16315789 -0.05151625 0.00000000) 
        (0.16842105 -0.05167705 0.00000000) 
        (0.17368421 -0.05181953 0.00000000) 
        (0.17894737 -0.05194478 0.00000000) 
        (0.18421053 -0.05205084 0.00000000) 
        (0.18947368 -0.05214094 0.00000000) 
        (0.19473684 -0.05221616 0.00000000) 
        (0.20000000 -0.05227485 0.00000000) 
        (0.20526316 -0.05231960 0.00000000) 
        (0.21052632 -0.05235142 0.00000000) 
        (0.21578947 -0.05236892 0.00000000) 
        (0.22105263 -0.05237422 0.00000000) 
        (0.22631579 -0.05236826 0.00000000) 
        (0.23157895 -0.05234981 0.00000000) 
        (0.23684211 -0.05232071 0.00000000) 
        (0.24210526 -0.05228177 0.00000000) 
        (0.24736842 -0.05223193 0.00000000) 
        (0.25263158 -0.05217278 0.00000000) 
        (0.25789474 -0.05210504 0.00000000) 
        (0.26315789 -0.05202778 0.00000000) 
        (0.26842105 -0.05194241 0.00000000) 
        (0.27368421 -0.05184956 0.00000000) 
        (0.27894737 -0.05174838 0.00000000) 
        (0.28421053 -0.05164018 0.00000000) 
        (0.28947368 -0.05152547 0.00000000) 
        (0.29473684 -0.05140352 0.00000000) 
        (0.30000000 -0.05127550 0.00000000) 
        (0.30533333 -0.05114005 0.00000000) 
        (0.31066667 -0.05099811 0.00000000) 
        (0.31600000 -0.05085092 0.00000000) 
        (0.32133333 -0.05069871 0.00000000) 
        (0.32666667 -0.05054097 0.00000000) 
        (0.33200000 -0.05037883 0.00000000) 
        (0.33733333 -0.05021228 0.00000000) 
        (0.34266667 -0.05004119 0.00000000) 
        (0.34800000 -0.04986640 0.00000000) 
        (0.35333333 -0.04968779 0.00000000) 
        (0.35866667 -0.04950553 0.00000000) 
        (0.36400000 -0.04932019 0.00000000) 
        (0.36933333 -0.04913160 0.00000000) 
        (0.37466667 -0.04894013 0.00000000) 
        (0.38000000 -0.04874616 0.00000000) 
        (0.38533333 -0.04854951 0.00000000) 
        (0.39066667 -0.04835065 0.00000000) 
        (0.39600000 -0.04814982 0.00000000) 
        (0.40133333 -0.04794691 0.00000000) 
        (0.40666667 -0.04774104 0.00000000) 
        (0.41200000 -0.04752999 0.00000000) 
        (0.41733333 -0.04731302 0.00000000) 
        (0.42266667 -0.04709123 0.00000000) 
        (0.42800000 -0.04686464 0.00000000) 
        (0.43333333 -0.04663271 0.00000000) 
        (0.43866667 -0.04639638 0.00000000) 
        (0.44400000 -0.04615560 0.00000000) 
        (0.44933333 -0.04591001 0.00000000) 
        (0.45466667 -0.04566041 0.00000000) 
        (0.46000000 -0.04540670 0.00000000) 
        (0.46533333 -0.04514866 0.00000000) 
        (0.47066667 -0.04488696 0.00000000) 
        (0.47600000 -0.04462147 0.00000000) 
        (0.48133333 -0.04435209 0.00000000) 
        (0.48666667 -0.04407937 0.00000000) 
        (0.49200000 -0.04380317 0.00000000) 
        (0.49733333 -0.04352346 0.00000000) 
        (0.50266667 -0.04324073 0.00000000) 
        (0.50800000 -0.04295479 0.00000000) 
        (0.51333333 -0.04266571 0.00000000) 
        (0.51866667 -0.04237388 0.00000000) 
        (0.52400000 -0.04207912 0.00000000) 
        (0.52933333 -0.04178153 0.00000000) 
        (0.53466667 -0.04148146 0.00000000) 
        (0.54000000 -0.04117869 0.00000000) 
        (0.54533333 -0.04087340 0.00000000) 
        (0.55066667 -0.04056586 0.00000000) 
        (0.55600000 -0.04025586 0.00000000) 
        (0.56133333 -0.03994360 0.00000000) 
        (0.56666667 -0.03962930 0.00000000) 
        (0.57200000 -0.03931276 0.00000000) 
        (0.57733333 -0.03899420 0.00000000) 
        (0.58266667 -0.03867379 0.00000000) 
        (0.58800000 -0.03835135 0.00000000) 
        (0.59333333 -0.03802709 0.00000000) 
        (0.59866667 -0.03770117 0.00000000) 
        (0.60400000 -0.03737339 0.00000000) 
        (0.60933333 -0.03704399 0.00000000) 
        (0.61466667 -0.03671308 0.00000000) 
        (0.62000000 -0.03638049 0.00000000) 
        (0.62533333 -0.03604644 0.00000000) 
        (0.63066667 -0.03571103 0.00000000) 
        (0.63600000 -0.03537409 0.00000000) 
        (0.64133333 -0.03503583 0.00000000) 
        (0.64666667 -0.03469634 0.00000000) 
        (0.65200000 -0.03435545 0.00000000) 
        (0.65733333 -0.03401338 0.00000000) 
        (0.66266667 -0.03367018 0.00000000) 
        (0.66800000 -0.03332571 0.00000000) 
        (0.67333333 -0.03298015 0.00000000) 
        (0.67866667 -0.03263357 0.00000000) 
        (0.68400000 -0.03228582 0.00000000) 
        (0.68933333 -0.03193708 0.00000000) 
        (0.69466667 -0.03158739 0.00000000) 
        (0.70000000 -0.03123662 0.00000000) 
        (0.70617715 -0.03082924 0.00000000) 
        (0.71230279 -0.03042397 0.00000000) 
        (0.71837734 -0.03002096 0.00000000) 
        (0.72440124 -0.02962009 0.00000000) 
        (0.73037490 -0.02922155 0.00000000) 
        (0.73629875 -0.02882521 0.00000000) 
        (0.74217319 -0.02843120 0.00000000) 
        (0.74799865 -0.02803944 0.00000000) 
        (0.75377553 -0.02765002 0.00000000) 
        (0.75950423 -0.02726290 0.00000000) 
        (0.76518516 -0.02687807 0.00000000) 
        (0.77081872 -0.02649562 0.00000000) 
        (0.77640529 -0.02611538 0.00000000) 
        (0.78194528 -0.02573752 0.00000000) 
        (0.78743907 -0.02536196 0.00000000) 
        (0.79288705 -0.02498865 0.00000000) 
        (0.79828959 -0.02461768 0.00000000) 
        (0.80364708 -0.02424895 0.00000000) 
        (0.80895989 -0.02388248 0.00000000) 
        (0.81422840 -0.02351829 0.00000000) 
        (0.81945298 -0.02315633 0.00000000) 
        (0.82463398 -0.02279654 0.00000000) 
        (0.82977178 -0.02243900 0.00000000) 
        (0.83486673 -0.02208369 0.00000000) 
        (0.83991920 -0.02173045 0.00000000) 
        (0.84492953 -0.02137939 0.00000000) 
        (0.84989808 -0.02103048 0.00000000) 
        (0.85482520 -0.02068372 0.00000000) 
        (0.85971122 -0.02033897 0.00000000) 
        (0.86455651 -0.01999630 0.00000000) 
        (0.86936138 -0.01965570 0.00000000) 
        (0.87412619 -0.01931714 0.00000000) 
        (0.87885126 -0.01898061 0.00000000) 
        (0.88353693 -0.01864603 0.00000000) 
        (0.88818352 -0.01831338 0.00000000) 
        (0.89279137 -0.01798269 0.00000000) 
        (0.89736079 -0.01765393 0.00000000) 
        (0.90189210 -0.01732708 0.00000000) 
        (0.90638563 -0.01700212 0.00000000) 
        (0.91084168 -0.01667903 0.00000000) 
        (0.91526057 -0.01635777 0.00000000) 
        (0.91964262 -0.01603829 0.00000000) 
        (0.92398812 -0.01572059 0.00000000) 
        (0.92829738 -0.01540467 0.00000000) 
        (0.93257071 -0.01509051 0.00000000) 
        (0.93680840 -0.01477808 0.00000000) 
        (0.94101075 -0.01446737 0.00000000) 
        (0.94517805 -0.01415836 0.00000000) 
        (0.94931061 -0.01385102 0.00000000) 
        (0.95340870 -0.01354534 0.00000000) 
        (0.95747262 -0.01324130 0.00000000) 
        (0.96150265 -0.01293887 0.00000000) 
        (0.96549907 -0.01263805 0.00000000) 
        (0.96946216 -0.01233881 0.00000000) 
        (0.97339220 -0.01204113 0.00000000) 
        (0.97728947 -0.01174501 0.00000000) 
        (0.98115424 -0.01145042 0.00000000) 
        (0.98498679 -0.01115735 0.00000000) 
        (0.98878737 -0.01086579 0.00000000) 
        (0.99255625 -0.01057572 0.00000000) 
        (0.99629371 -0.01028713 0.00000000) 
        (1.00000000 -0.01000000 0.00000000) 
        ) 
    polyLine 3 2 ( 
        (0.00000000 0.01312364 0.00000000) 
        (0.00020838 0.01455983 0.00000000) 
        (0.00042536 0.01553969 0.00000000) 
        (0.00065131 0.01635280 0.00000000) 
        (0.00088660 0.01707442 0.00000000) 
        (0.00113161 0.01773764 0.00000000) 
        (0.00138673 0.01836050 0.00000000) 
        (0.00165240 0.01895409 0.00000000) 
        (0.00192905 0.01952584 0.00000000) 
        (0.00221712 0.02008100 0.00000000) 
        (0.00251709 0.02062345 0.00000000) 
        (0.00282946 0.02115618 0.00000000) 
        (0.00315473 0.02161478 0.00000000) 
        (0.00349344 0.02206140 0.00000000) 
        (0.00384615 0.02252647 0.00000000) 
        (0.00421342 0.02301076 0.00000000) 
        (0.00459587 0.02351505 0.00000000) 
        (0.00499412 0.02404018 0.00000000) 
        (0.00540882 0.02458700 0.00000000) 
        (0.00584066 0.02515641 0.00000000) 
        (0.00629033 0.02574935 0.00000000) 
        (0.00675858 0.02628217 0.00000000) 
        (0.00724618 0.02676159 0.00000000) 
        (0.00775392 0.02726081 0.00000000) 
        (0.00828264 0.02778066 0.00000000) 
        (0.00883320 0.02832198 0.00000000) 
        (0.00940651 0.02888567 0.00000000) 
        (0.01000351 0.02947265 0.00000000) 
        (0.01062516 0.03001383 0.00000000) 
        (0.01127250 0.03054202 0.00000000) 
        (0.01194659 0.03109202 0.00000000) 
        (0.01264852 0.03166475 0.00000000) 
        (0.01337945 0.03226114 0.00000000) 
        (0.01414058 0.03286394 0.00000000) 
        (0.01493315 0.03342720 0.00000000) 
        (0.01575847 0.03401372 0.00000000) 
        (0.01661789 0.03462447 0.00000000) 
        (0.01751281 0.03526046 0.00000000) 
        (0.01844470 0.03587244 0.00000000) 
        (0.01941509 0.03648993 0.00000000) 
        (0.02042557 0.03713294 0.00000000) 
        (0.02147780 0.03780251 0.00000000) 
        (0.02257350 0.03844484 0.00000000) 
        (0.02371447 0.03910665 0.00000000) 
        (0.02490257 0.03979581 0.00000000) 
        (0.02613976 0.04048264 0.00000000) 
        (0.02742806 0.04117234 0.00000000) 
        (0.02876959 0.04189053 0.00000000) 
        (0.03016654 0.04260736 0.00000000) 
        (0.03162120 0.04333271 0.00000000) 
        (0.03313596 0.04408802 0.00000000) 
        (0.03471330 0.04482793 0.00000000) 
        (0.03635580 0.04559609 0.00000000) 
        (0.03806616 0.04637043 0.00000000) 
        (0.03984719 0.04715593 0.00000000) 
        (0.04170179 0.04795792 0.00000000) 
        (0.04363301 0.04876467 0.00000000) 
        (0.04564402 0.04959015 0.00000000) 
        (0.04773811 0.05042167 0.00000000) 
        (0.04991871 0.05126807 0.00000000) 
        (0.05218941 0.05212767 0.00000000) 
        (0.05455391 0.05299345 0.00000000) 
        (0.05701610 0.05388019 0.00000000) 
        (0.05958001 0.05476858 0.00000000) 
        (0.06224984 0.05567190 0.00000000) 
        (0.06502998 0.05659130 0.00000000) 
        (0.06792497 0.05751605 0.00000000) 
        (0.07093956 0.05845099 0.00000000) 
        (0.07407870 0.05939897 0.00000000) 
        (0.07734753 0.06035838 0.00000000) 
        (0.08075140 0.06132789 0.00000000) 
        (0.08429590 0.06230419 0.00000000) 
        (0.08798683 0.06328814 0.00000000) 
        (0.09183025 0.06428075 0.00000000) 
        (0.09583245 0.06528109 0.00000000) 
        (0.10000000 0.06628831 0.00000000) 
        (0.10526316 0.06751072 0.00000000) 
        (0.11052632 0.06868133 0.00000000) 
        (0.11578947 0.06980622 0.00000000) 
        (0.12105263 0.07088410 0.00000000) 
        (0.12631579 0.07191590 0.00000000) 
        (0.13157895 0.07290808 0.00000000) 
        (0.13684211 0.07386078 0.00000000) 
        (0.14210526 0.07477134 0.00000000) 
        (0.14736842 0.07564680 0.00000000) 
        (0.15263158 0.07648829 0.00000000) 
        (0.15789474 0.07729122 0.00000000) 
        (0.16315789 0.07806214 0.00000000) 
        (0.16842105 0.07880234 0.00000000) 
        (0.17368421 0.07950908 0.00000000) 
        (0.17894737 0.08018504 0.00000000) 
        (0.18421053 0.08083288 0.00000000) 
        (0.18947368 0.08145153 0.00000000) 
        (0.19473684 0.08204025 0.00000000) 
        (0.20000000 0.08260299 0.00000000) 
        (0.20526316 0.08314017 0.00000000) 
        (0.21052632 0.08364803 0.00000000) 
        (0.21578947 0.08413168 0.00000000) 
        (0.22105263 0.08459160 0.00000000) 
        (0.22631579 0.08502529 0.00000000) 
        (0.23157895 0.08543494 0.00000000) 
        (0.23684211 0.08582229 0.00000000) 
        (0.24210526 0.08618637 0.00000000) 
        (0.24736842 0.08652636 0.00000000) 
        (0.25263158 0.08684529 0.00000000) 
        (0.25789474 0.08714352 0.00000000) 
        (0.26315789 0.08741768 0.00000000) 
        (0.26842105 0.08767180 0.00000000) 
        (0.27368421 0.08790626 0.00000000) 
        (0.27894737 0.08811914 0.00000000) 
        (0.28421053 0.08831162 0.00000000) 
        (0.28947368 0.08848536 0.00000000) 
        (0.29473684 0.08863976 0.00000000) 
        (0.30000000 0.08877341 0.00000000) 
        (0.30533333 0.08889058 0.00000000) 
        (0.31066667 0.08898966 0.00000000) 
        (0.31600000 0.08906752 0.00000000) 
        (0.32133333 0.08912777 0.00000000) 
        (0.32666667 0.08917067 0.00000000) 
        (0.33200000 0.08919382 0.00000000) 
        (0.33733333 0.08919941 0.00000000) 
        (0.34266667 0.08918831 0.00000000) 
        (0.34800000 0.08915879 0.00000000) 
        (0.35333333 0.08911174 0.00000000) 
        (0.35866667 0.08904860 0.00000000) 
        (0.36400000 0.08896827 0.00000000) 
        (0.36933333 0.08887043 0.00000000) 
        (0.37466667 0.08875704 0.00000000) 
        (0.38000000 0.08862757 0.00000000) 
        (0.38533333 0.08848062 0.00000000) 
        (0.39066667 0.08831860 0.00000000) 
        (0.39600000 0.08814154 0.00000000) 
        (0.40133333 0.08794697 0.00000000) 
        (0.40666667 0.08773908 0.00000000) 
        (0.41200000 0.08752027 0.00000000) 
        (0.41733333 0.08728872 0.00000000) 
        (0.42266667 0.08704642 0.00000000) 
        (0.42800000 0.08679364 0.00000000) 
        (0.43333333 0.08652874 0.00000000) 
        (0.43866667 0.08625335 0.00000000) 
        (0.44400000 0.08596786 0.00000000) 
        (0.44933333 0.08567083 0.00000000) 
        (0.45466667 0.08536354 0.00000000) 
        (0.46000000 0.08504651 0.00000000) 
        (0.46533333 0.08471847 0.00000000) 
        (0.47066667 0.08438039 0.00000000) 
        (0.47600000 0.08403289 0.00000000) 
        (0.48133333 0.08367488 0.00000000) 
        (0.48666667 0.08330703 0.00000000) 
        (0.49200000 0.08293005 0.00000000) 
        (0.49733333 0.08254302 0.00000000) 
        (0.50266667 0.08214633 0.00000000) 
        (0.50800000 0.08174080 0.00000000) 
        (0.51333333 0.08132561 0.00000000) 
        (0.51866667 0.08090095 0.00000000) 
        (0.52400000 0.08046770 0.00000000) 
        (0.52933333 0.08002517 0.00000000) 
        (0.53466667 0.07957332 0.00000000) 
        (0.54000000 0.07911313 0.00000000) 
        (0.54533333 0.07864399 0.00000000) 
        (0.55066667 0.07816568 0.00000000) 
        (0.55600000 0.07767924 0.00000000) 
        (0.56133333 0.07718417 0.00000000) 
        (0.56666667 0.07668007 0.00000000) 
        (0.57200000 0.07616804 0.00000000) 
        (0.57733333 0.07564764 0.00000000) 
        (0.58266667 0.07511835 0.00000000) 
        (0.58800000 0.07458130 0.00000000) 
        (0.59333333 0.07403613 0.00000000) 
        (0.59866667 0.07348220 0.00000000) 
        (0.60400000 0.07292066 0.00000000) 
        (0.60933333 0.07235123 0.00000000) 
        (0.61466667 0.07177314 0.00000000) 
        (0.62000000 0.07118759 0.00000000) 
        (0.62533333 0.07059433 0.00000000) 
        (0.63066667 0.06999252 0.00000000) 
        (0.63600000 0.06938338 0.00000000) 
        (0.64133333 0.06876670 0.00000000) 
        (0.64666667 0.06814155 0.00000000) 
        (0.65200000 0.06750918 0.00000000) 
        (0.65733333 0.06686942 0.00000000) 
        (0.66266667 0.06622127 0.00000000) 
        (0.66800000 0.06556599 0.00000000) 
        (0.67333333 0.06490345 0.00000000) 
        (0.67866667 0.06423259 0.00000000) 
        (0.68400000 0.06355467 0.00000000) 
        (0.68933333 0.06286959 0.00000000) 
        (0.69466667 0.06217625 0.00000000) 
        (0.70000000 0.06147593 0.00000000) 
        (0.70617715 0.06065553 0.00000000) 
        (0.71230279 0.05983212 0.00000000) 
        (0.71837734 0.05900588 0.00000000) 
        (0.72440124 0.05817722 0.00000000) 
        (0.73037490 0.05734603 0.00000000) 
        (0.73629875 0.05651282 0.00000000) 
        (0.74217319 0.05567754 0.00000000) 
        (0.74799865 0.05484040 0.00000000) 
        (0.75377553 0.05400185 0.00000000) 
        (0.75950423 0.05316137 0.00000000) 
        (0.76518516 0.05232030 0.00000000) 
        (0.77081872 0.05147706 0.00000000) 
        (0.77640529 0.05063344 0.00000000) 
        (0.78194528 0.04978874 0.00000000) 
        (0.78743907 0.04894309 0.00000000) 
        (0.79288705 0.04809735 0.00000000) 
        (0.79828959 0.04725042 0.00000000) 
        (0.80364708 0.04640333 0.00000000) 
        (0.80895989 0.04555641 0.00000000) 
        (0.81422840 0.04470859 0.00000000) 
        (0.81945298 0.04386094 0.00000000) 
        (0.82463398 0.04301372 0.00000000) 
        (0.82977178 0.04216624 0.00000000) 
        (0.83486673 0.04131887 0.00000000) 
        (0.83991920 0.04047215 0.00000000) 
        (0.84492953 0.03962612 0.00000000) 
        (0.84989808 0.03877989 0.00000000) 
        (0.85482520 0.03793442 0.00000000) 
        (0.85971122 0.03708984 0.00000000) 
        (0.86455651 0.03624622 0.00000000) 
        (0.86936138 0.03540312 0.00000000) 
        (0.87412619 0.03456070 0.00000000) 
        (0.87885126 0.03371942 0.00000000) 
        (0.88353693 0.03287932 0.00000000) 
        (0.88818352 0.03204044 0.00000000) 
        (0.89279137 0.03120284 0.00000000) 
        (0.89736079 0.03036591 0.00000000) 
        (0.90189210 0.02953038 0.00000000) 
        (0.90638563 0.02869628 0.00000000) 
        (0.91084168 0.02786367 0.00000000) 
        (0.91526057 0.02703257 0.00000000) 
        (0.91964262 0.02620305 0.00000000) 
        (0.92398812 0.02537512 0.00000000) 
        (0.92829738 0.02454884 0.00000000) 
        (0.93257071 0.02372423 0.00000000) 
        (0.93680840 0.02290106 0.00000000) 
        (0.94101075 0.02207968 0.00000000) 
        (0.94517805 0.02126013 0.00000000) 
        (0.94931061 0.02044246 0.00000000) 
        (0.95340870 0.01962670 0.00000000) 
        (0.95747262 0.01881289 0.00000000) 
        (0.96150265 0.01800106 0.00000000) 
        (0.96549907 0.01719125 0.00000000) 
        (0.96946216 0.01638350 0.00000000) 
        (0.97339220 0.01557785 0.00000000) 
        (0.97728947 0.01477433 0.00000000) 
        (0.98115424 0.01397298 0.00000000) 
        (0.98498679 0.01317383 0.00000000) 
        (0.98878737 0.01237692 0.00000000) 
        (0.99255625 0.01158229 0.00000000) 
        (0.99629371 0.01078997 0.00000000) 
        (1.00000000 0.01000000 0.00000000) 
        ) 
    spline 4 5 ( 
        (0.00000000 -0.01000000 0.01000000) 
        (0.00020838 -0.01142259 0.01000000) 
        (0.00042536 -0.01238147 0.01000000) 
        (0.00065131 -0.01316871 0.01000000) 
        (0.00088660 -0.01386092 0.01000000) 
        (0.00113161 -0.01449168 0.01000000) 
        (0.00138673 -0.01507934 0.01000000) 
        (0.00165240 -0.01563516 0.01000000) 
        (0.00192905 -0.01616660 0.01000000) 
        (0.00221712 -0.01667896 0.01000000) 
        (0.00251709 -0.01717612 0.01000000) 
        (0.00282946 -0.01766102 0.01000000) 
        (0.00315473 -0.01813599 0.01000000) 
        (0.00349344 -0.01860286 0.01000000) 
        (0.00384615 -0.01906314 0.01000000) 
        (0.00421342 -0.01951807 0.01000000) 
        (0.00459587 -0.01996870 0.01000000) 
        (0.00499412 -0.02041590 0.01000000) 
        (0.00540882 -0.02080318 0.01000000) 
        (0.00584066 -0.02118872 0.01000000) 
        (0.00629033 -0.02159018 0.01000000) 
        (0.00675858 -0.02200822 0.01000000) 
        (0.00724618 -0.02244354 0.01000000) 
        (0.00775392 -0.02289684 0.01000000) 
        (0.00828264 -0.02336887 0.01000000) 
        (0.00883320 -0.02386040 0.01000000) 
        (0.00940651 -0.02437223 0.01000000) 
        (0.01000351 -0.02478895 0.01000000) 
        (0.01062516 -0.02520216 0.01000000) 
        (0.01127250 -0.02563245 0.01000000) 
        (0.01194659 -0.02608051 0.01000000) 
        (0.01264852 -0.02654709 0.01000000) 
        (0.01337945 -0.02703294 0.01000000) 
        (0.01414058 -0.02749621 0.01000000) 
        (0.01493315 -0.02792562 0.01000000) 
        (0.01575847 -0.02837277 0.01000000) 
        (0.01661789 -0.02883839 0.01000000) 
        (0.01751281 -0.02932326 0.01000000) 
        (0.01844470 -0.02979498 0.01000000) 
        (0.01941509 -0.03024264 0.01000000) 
        (0.02042557 -0.03070879 0.01000000) 
        (0.02147780 -0.03119420 0.01000000) 
        (0.02257350 -0.03167978 0.01000000) 
        (0.02371447 -0.03213975 0.01000000) 
        (0.02490257 -0.03261872 0.01000000) 
        (0.02613976 -0.03311748 0.01000000) 
        (0.02742806 -0.03359097 0.01000000) 
        (0.02876959 -0.03407183 0.01000000) 
        (0.03016654 -0.03457255 0.01000000) 
        (0.03162120 -0.03505559 0.01000000) 
        (0.03313596 -0.03554432 0.01000000) 
        (0.03471330 -0.03605220 0.01000000) 
        (0.03635580 -0.03653360 0.01000000) 
        (0.03806616 -0.03703489 0.01000000) 
        (0.03984719 -0.03753056 0.01000000) 
        (0.04170179 -0.03802783 0.01000000) 
        (0.04363301 -0.03852975 0.01000000) 
        (0.04564402 -0.03902577 0.01000000) 
        (0.04773811 -0.03952813 0.01000000) 
        (0.04991871 -0.04002511 0.01000000) 
        (0.05218941 -0.04052397 0.01000000) 
        (0.05455391 -0.04102372 0.01000000) 
        (0.05701610 -0.04151629 0.01000000) 
        (0.05958001 -0.04201520 0.01000000) 
        (0.06224984 -0.04250455 0.01000000) 
        (0.06502998 -0.04299267 0.01000000) 
        (0.06792497 -0.04348150 0.01000000) 
        (0.07093956 -0.04396455 0.01000000) 
        (0.07407870 -0.04443994 0.01000000) 
        (0.07734753 -0.04491241 0.01000000) 
        (0.08075140 -0.04538025 0.01000000) 
        (0.08429590 -0.04584204 0.01000000) 
        (0.08798683 -0.04629655 0.01000000) 
        (0.09183025 -0.04674276 0.01000000) 
        (0.09583245 -0.04717974 0.01000000) 
        (0.10000000 -0.04760667 0.01000000) 
        (0.10526316 -0.04810700 0.01000000) 
        (0.11052632 -0.04857030 0.01000000) 
        (0.11578947 -0.04899749 0.01000000) 
        (0.12105263 -0.04938765 0.01000000) 
        (0.12631579 -0.04974774 0.01000000) 
        (0.13157895 -0.05007894 0.01000000) 
        (0.13684211 -0.05037887 0.01000000) 
        (0.14210526 -0.05065381 0.01000000) 
        (0.14736842 -0.05090504 0.01000000) 
        (0.15263158 -0.05112955 0.01000000) 
        (0.15789474 -0.05133295 0.01000000) 
        (0.16315789 -0.05151625 0.01000000) 
        (0.16842105 -0.05167705 0.01000000) 
        (0.17368421 -0.05181953 0.01000000) 
        (0.17894737 -0.05194478 0.01000000) 
        (0.18421053 -0.05205084 0.01000000) 
        (0.18947368 -0.05214094 0.01000000) 
        (0.19473684 -0.05221616 0.01000000) 
        (0.20000000 -0.05227485 0.01000000) 
        (0.20526316 -0.05231960 0.01000000) 
        (0.21052632 -0.05235142 0.01000000) 
        (0.21578947 -0.05236892 0.01000000) 
        (0.22105263 -0.05237422 0.01000000) 
        (0.22631579 -0.05236826 0.01000000) 
        (0.23157895 -0.05234981 0.01000000) 
        (0.23684211 -0.05232071 0.01000000) 
        (0.24210526 -0.05228177 0.01000000) 
        (0.24736842 -0.05223193 0.01000000) 
        (0.25263158 -0.05217278 0.01000000) 
        (0.25789474 -0.05210504 0.01000000) 
        (0.26315789 -0.05202778 0.01000000) 
        (0.26842105 -0.05194241 0.01000000) 
        (0.27368421 -0.05184956 0.01000000) 
        (0.27894737 -0.05174838 0.01000000) 
        (0.28421053 -0.05164018 0.01000000) 
        (0.28947368 -0.05152547 0.01000000) 
        (0.29473684 -0.05140352 0.01000000) 
        (0.30000000 -0.05127550 0.01000000) 
        (0.30533333 -0.05114005 0.01000000) 
        (0.31066667 -0.05099811 0.01000000) 
        (0.31600000 -0.05085092 0.01000000) 
        (0.32133333 -0.05069871 0.01000000) 
        (0.32666667 -0.05054097 0.01000000) 
        (0.33200000 -0.05037883 0.01000000) 
        (0.33733333 -0.05021228 0.01000000) 
        (0.34266667 -0.05004119 0.01000000) 
        (0.34800000 -0.04986640 0.01000000) 
        (0.35333333 -0.04968779 0.01000000) 
        (0.35866667 -0.04950553 0.01000000) 
        (0.36400000 -0.04932019 0.01000000) 
        (0.36933333 -0.04913160 0.01000000) 
        (0.37466667 -0.04894013 0.01000000) 
        (0.38000000 -0.04874616 0.01000000) 
        (0.38533333 -0.04854951 0.01000000) 
        (0.39066667 -0.04835065 0.01000000) 
        (0.39600000 -0.04814982 0.01000000) 
        (0.40133333 -0.04794691 0.01000000) 
        (0.40666667 -0.04774104 0.01000000) 
        (0.41200000 -0.04752999 0.01000000) 
        (0.41733333 -0.04731302 0.01000000) 
        (0.42266667 -0.04709123 0.01000000) 
        (0.42800000 -0.04686464 0.01000000) 
        (0.43333333 -0.04663271 0.01000000) 
        (0.43866667 -0.04639638 0.01000000) 
        (0.44400000 -0.04615560 0.01000000) 