/*--------------------------------*- C++ -*----------------------------------*\
| =========                 |                                                 |
| \\      /  F ield         | OpenFOAM: The Open Source CFD Toolbox           |
|  \\    /   O peration     | Version:  5                                     |
|   \\  /    A nd           | Web:      www.OpenFOAM.org                      |
|    \\/     M anipulation  |                                                 |
\*---------------------------------------------------------------------------*/
FoamFile
{
    version     2.0;
    format      ascii;
    class       dictionary;
    object      blockMeshDict;
}
// * * * * * * * * * * * * * * * * * * * * * * * * * * * * * * * * * * * * * //

maxX 1;
minX 0;
maxY 0.01;
minY -0.01;
maxZ 0.01;
minZ 0;
Nx 20;
Ny 1;
Nz 1;

convertToMeters 1;

vertices
(
	($minX $minY $minZ)
	($maxX $minY $minZ)	
	($maxX $maxY $minZ)
	($minX $maxY $minZ)
	($minX $minY $maxZ)
	($maxX $minY $maxZ)	
	($maxX $maxY $maxZ)
	($minX $maxY $maxZ)
);

blocks
(
    hex (0 1 2 3 4 5 6 7) ($Nx $Ny $Nz) simpleGrading (1 1 1)
/*    ( 
        (
        	(0.2 0.8 1)
        	(0.8 0.2 1)
        )
        (
        	(0.2 0.8 1)
        	(0.8 0.2 1)
        )
        (
        	(0.2 0.8 1)
        	(0.8 0.2 1)
        )
    )*/
);

edges
(

);

boundary
(

);

// ************************************************************************* //
