/*--------------------------------*- C++ -*----------------------------------*
| =========                |                                                 |
| \      /  F ield         | OpenFOAM: The Open Source CFD Toolbox           |
|  \    /   O peration     | Version:  5                                     |
|   \  /    A nd           | Web:      www.OpenFOAM.org                      |
|    \/     M anipulation  |                                                 |
\*---------------------------------------------------------------------------*/
FoamFile
{
    version     2.0;
    format      ascii;
    class       dictionary;
    object      blockMeshDict;
}
// * * * * * * * * * * * * * * * * * * * * * * * * * * * * * * * * * * * * * //

convertToMeters 1;
pc 			0.25000000; 
rPos		6.00000000; 
rNeg 		-6.00000000; 
l			10.00000000; 
ypcPos		0.09314040; 
ypcNeg		-0.02557305; 
maxZ		0.10000000; 
minZ		0.00000000; 
circPos		4.24264069; 
circNeg		-4.24264069; 
Npre		110; 
Npost		80; 
Nwake		175; 
Ny		100; 
Nz 			1; 
pre1			1.00000000; 
pre2			3.20000000; 
post1		1.80000000; 
post2		0.50000000; 
wake		30.00000000; 
yDir1		30.00000000; 
yDir2		1.00000000; 
zDir		1.00000000; 

vertices
(
	($pc	$rNeg 	$minZ)		// point 0
	(1.0 	$rNeg 	$minZ)		// point 1
	($l 	$rNeg 	$minZ)		// point 2
	($pc 	$ypcNeg	$minZ)		// point 3
	($rNeg 	0.0		$minZ)		// point 4
	(0.0 	0.0		$minZ)		// point 5
	(1.0	0.0		$minZ)		// point 6
	($l 	0.0		$minZ)		// point 7
	($pc 	$ypcPos	$minZ)		// point 8
	($pc 	$rPos	$minZ)		// point 9
	(1.0	$rPos	$minZ)		// point 10
	($l 	$rPos	$minZ)		// point 11

	($pc	$rNeg 	$maxZ)		// point 12
	(1.0 	$rNeg 	$maxZ)		// point 13
	($l 	$rNeg 	$maxZ)		// point 14
	($pc 	$ypcNeg	$maxZ)		// point 15
	($rNeg 	0.0		$maxZ)		// point 16
	(0.0 	0.0		$maxZ)		// point 17
	(1.0	0.0		$maxZ)		// point 18
	($l 	0.0		$maxZ)		// point 19
	($pc 	$ypcPos	$maxZ)		// point 20
	($pc 	$rPos	$maxZ)		// point 21
	(1.0	$rPos	$maxZ)		// point 22
	($l 	$rPos	$maxZ)		// point 23
);
 
blocks
(
    hex (17 15 12 16 5 3 0 4) 	($Npre 		$Ny 	$Nz) 	simpleGrading 		// block 0
    ( 
        (
        	(0.5 0.65 $pre1)
        	(0.5 0.35 $pre2)
        )
        (
            (0.2 0.5 $yDir1)
            (0.8 0.5 $yDir2)
        )
        (
        	(1 1 $zDir)
        )
    )
    hex (5 8 9 4 17 20 21 16) 	($Npre 		$Ny 	$Nz) 	simpleGrading 		// block 1
    ( 
        (
        	(0.5 0.65 $pre1)
        	(0.5 0.35 $pre2)
        )
        (
            (0.2 0.5 $yDir1)
            (0.8 0.5 $yDir2)
        )
        (
        	(1 1 $zDir)
        )
    )
    hex (15 18 13 12 3 6 1 0) 	($Npost 	$Ny 	$Nz) 	simpleGrading 		// block 2
    ( 
        (
        	(0.5 0.45 $post1)
        	(0.5 0.55 $post2)
        )
        (
            (0.2 0.5 $yDir1)
            (0.8 0.5 $yDir2)
        )
        (
        	(1 1 $zDir)
        )
    )
    hex (8 6 10 9 20 18 22 21) 	($Npost 	$Ny 	$Nz) 	simpleGrading 		// block 3
    ( 
        (
        	(0.5 0.45 $post1)
        	(0.5 0.55 $post2)
        )
        (
            (0.2 0.5 $yDir1)
            (0.8 0.5 $yDir2)
        )
        (
        	(1 1 $zDir)
        )
    )
    hex (18 19 14 13 6 7 2 1) 	($Nwake 	$Ny 	$Nz) 	simpleGrading 		// block 4
    ( 
        (
        	(1 1 $wake)
        )
        (
            (0.2 0.5 $yDir1)
            (0.8 0.5 $yDir2)
        )
        (
        	(1 1 $zDir)
        )
    )
    hex (6 7 11 10 18 19 23 22)	($Nwake 	$Ny 	$Nz) 	simpleGrading 		// block 5
    ( 
        (
        	(1 1 $wake)
        )
        (
            (0.2 0.5 $yDir1)
            (0.8 0.5 $yDir2)
        )
        (
        	(1 1 $zDir)
        )
    )
); 

edges 
(
    // Upper circular inlet
    arc 4  9  ($circNeg $circPos $minZ)
    arc 16 21 ($circNeg $circPos $maxZ)
    
    // Lower circular inlet
    arc 4  0  ($circNeg $circNeg $minZ)
    arc 16 12 ($circNeg $circNeg $maxZ)
    
    // Upper right airfoil
    spline 8 6 ( 
        (0.25000000 0.09314040 0.00000000) 
        (0.25892299 0.09399184 0.00000000) 
        (0.26393899 0.09438654 0.00000000) 
        (0.26898690 0.09476038 0.00000000) 
        (0.27406613 0.09511326 0.00000000) 
        (0.27917609 0.09544506 0.00000000) 
        (0.28431617 0.09575568 0.00000000) 
        (0.28948578 0.09604503 0.00000000) 
        (0.29468432 0.09631303 0.00000000) 
        (0.29991117 0.09655958 0.00000000) 
        (0.30516573 0.09678463 0.00000000) 
        (0.31044737 0.09698811 0.00000000) 
        (0.31575549 0.09716996 0.00000000) 
        (0.32108946 0.09733014 0.00000000) 
        (0.32644865 0.09746859 0.00000000) 
        (0.33183244 0.09758530 0.00000000) 
        (0.33724020 0.09768024 0.00000000) 
        (0.34267130 0.09775339 0.00000000) 
        (0.34812509 0.09780474 0.00000000) 
        (0.35360094 0.09783429 0.00000000) 
        (0.35909821 0.09784204 0.00000000) 
        (0.36461624 0.09782802 0.00000000) 
        (0.37015438 0.09779225 0.00000000) 
        (0.37571200 0.09773475 0.00000000) 
        (0.38128842 0.09765557 0.00000000) 
        (0.38688299 0.09755476 0.00000000) 
        (0.39249506 0.09743236 0.00000000) 
        (0.39812394 0.09728844 0.00000000) 
        (0.40376899 0.09712308 0.00000000) 
        (0.40942953 0.09693636 0.00000000) 
        (0.41510488 0.09672835 0.00000000) 
        (0.42079437 0.09649917 0.00000000) 
        (0.42649732 0.09624890 0.00000000) 
        (0.43221305 0.09597767 0.00000000) 
        (0.43794088 0.09568560 0.00000000) 
        (0.44368011 0.09537281 0.00000000) 
        (0.44943006 0.09503944 0.00000000) 
        (0.45519004 0.09468564 0.00000000) 
        (0.46095934 0.09431155 0.00000000) 
        (0.46673728 0.09391734 0.00000000) 
        (0.47252316 0.09350318 0.00000000) 
        (0.47831626 0.09306925 0.00000000) 
        (0.48411588 0.09261572 0.00000000) 
        (0.48992131 0.09214280 0.00000000) 
        (0.49573185 0.09165069 0.00000000) 
        (0.50154678 0.09113958 0.00000000) 
        (0.50736537 0.09060971 0.00000000) 
        (0.51318692 0.09006129 0.00000000) 
        (0.51901070 0.08949456 0.00000000) 
        (0.52483599 0.08890975 0.00000000) 
        (0.53066205 0.08830712 0.00000000) 
        (0.53648817 0.08768692 0.00000000) 
        (0.54231360 0.08704941 0.00000000) 
        (0.54813761 0.08639487 0.00000000) 
        (0.55395947 0.08572357 0.00000000) 
        (0.55977843 0.08503579 0.00000000) 
        (0.56559375 0.08433184 0.00000000) 
        (0.57140469 0.08361200 0.00000000) 
        (0.57721050 0.08287660 0.00000000) 
        (0.58301042 0.08212593 0.00000000) 
        (0.58880371 0.08136033 0.00000000) 
        (0.59458962 0.08058012 0.00000000) 
        (0.60036737 0.07978564 0.00000000) 
        (0.60613621 0.07897723 0.00000000) 
        (0.61189539 0.07815523 0.00000000) 
        (0.61764412 0.07732001 0.00000000) 
        (0.62338165 0.07647191 0.00000000) 
        (0.62910720 0.07561133 0.00000000) 
        (0.63482000 0.07473861 0.00000000) 
        (0.64051927 0.07385415 0.00000000) 
        (0.64620424 0.07295834 0.00000000) 
        (0.65187412 0.07205156 0.00000000) 
        (0.65752813 0.07113420 0.00000000) 
        (0.66316548 0.07020669 0.00000000) 
        (0.66878539 0.06926942 0.00000000) 
        (0.67438706 0.06832280 0.00000000) 
        (0.67996969 0.06736726 0.00000000) 
        (0.68553250 0.06640323 0.00000000) 
        (0.69107468 0.06543112 0.00000000) 
        (0.69659543 0.06445137 0.00000000) 
        (0.70209394 0.06346443 0.00000000) 
        (0.70756941 0.06247073 0.00000000) 
        (0.71302103 0.06147072 0.00000000) 
        (0.71844799 0.06046485 0.00000000) 
        (0.72384947 0.05945357 0.00000000) 
        (0.72922465 0.05843735 0.00000000) 
        (0.73457271 0.05741664 0.00000000) 
        (0.73989284 0.05639190 0.00000000) 
        (0.74518420 0.05536362 0.00000000) 
        (0.75044597 0.05433224 0.00000000) 
        (0.75567732 0.05329826 0.00000000) 
        (0.76087742 0.05226214 0.00000000) 
        (0.76604543 0.05122435 0.00000000) 
        (0.77118052 0.05018539 0.00000000) 
        (0.77628184 0.04914572 0.00000000) 
        (0.78134855 0.04810584 0.00000000) 
        (0.78637981 0.04706621 0.00000000) 
        (0.79137477 0.04602734 0.00000000) 
        (0.79633259 0.04498969 0.00000000) 
        (0.80125241 0.04395376 0.00000000) 
        (0.80613338 0.04292003 0.00000000) 
        (0.81097464 0.04188899 0.00000000) 
        (0.81577534 0.04086112 0.00000000) 
        (0.82053461 0.03983689 0.00000000) 
        (0.82525161 0.03881681 0.00000000) 
        (0.82992545 0.03780134 0.00000000) 
        (0.83455528 0.03679096 0.00000000) 
        (0.83914024 0.03578616 0.00000000) 
        (0.84367944 0.03478740 0.00000000) 
        (0.84817203 0.03379516 0.00000000) 
        (0.85261714 0.03280992 0.00000000) 
        (0.85701388 0.03183213 0.00000000) 
        (0.86136139 0.03086225 0.00000000) 
        (0.86565879 0.02990076 0.00000000) 
        (0.86990521 0.02894810 0.00000000) 
        (0.87409976 0.02800473 0.00000000) 
        (0.87824158 0.02707108 0.00000000) 
        (0.88232978 0.02614760 0.00000000) 
        (0.88636349 0.02523473 0.00000000) 
        (0.89034182 0.02433290 0.00000000) 
        (0.89426391 0.02344252 0.00000000) 
        (0.89812886 0.02256402 0.00000000) 
        (0.90193580 0.02169780 0.00000000) 
        (0.90568386 0.02084427 0.00000000) 
        (0.90937216 0.02000382 0.00000000) 
        (0.91299981 0.01917684 0.00000000) 
        (0.91656595 0.01836370 0.00000000) 
        (0.92006970 0.01756479 0.00000000) 
        (0.92351019 0.01678045 0.00000000) 
        (0.92688655 0.01601104 0.00000000) 
        (0.93019790 0.01525691 0.00000000) 
        (0.93344339 0.01451837 0.00000000) 
        (0.93662215 0.01379577 0.00000000) 
        (0.93973332 0.01308940 0.00000000) 
        (0.94277604 0.01239957 0.00000000) 
        (0.94574945 0.01172657 0.00000000) 
        (0.94865272 0.01107067 0.00000000) 
        (0.95148498 0.01043213 0.00000000) 
        (0.95424541 0.00981122 0.00000000) 
        (0.95693315 0.00920817 0.00000000) 
        (0.95954739 0.00862320 0.00000000) 
        (0.96208729 0.00805653 0.00000000) 
        (0.96455204 0.00750836 0.00000000) 
        (0.96694082 0.00697887 0.00000000) 
        (0.96925283 0.00646824 0.00000000) 
        (0.97148726 0.00597663 0.00000000) 
        (0.97364332 0.00550417 0.00000000) 
        (0.97572024 0.00505099 0.00000000) 
        (0.97771722 0.00461721 0.00000000) 
        (0.97963352 0.00420291 0.00000000) 
        (0.98146836 0.00380819 0.00000000) 
        (0.98322101 0.00343311 0.00000000) 
        (0.98489073 0.00307770 0.00000000) 
        (0.98647678 0.00274202 0.00000000) 
        (0.98797847 0.00242606 0.00000000) 
        (0.98939507 0.00212984 0.00000000) 
        (0.99072591 0.00185332 0.00000000) 
        (0.99197031 0.00159648 0.00000000) 
        (0.99312759 0.00135927 0.00000000) 
        (0.99419712 0.00114160 0.00000000) 
        (0.99517826 0.00094341 0.00000000) 
        (0.99607039 0.00076457 0.00000000) 
        (0.99687291 0.00060497 0.00000000) 
        (1.00000000 0.00000000 0.00000000) 
        ) 
    spline 20 18 ( 
        (0.25000000 0.09314040 0.10000000) 
        (0.25892299 0.09399184 0.10000000) 
        (0.26393899 0.09438654 0.10000000) 
        (0.26898690 0.09476038 0.10000000) 
        (0.27406613 0.09511326 0.10000000) 
        (0.27917609 0.09544506 0.10000000) 
        (0.28431617 0.09575568 0.10000000) 
        (0.28948578 0.09604503 0.10000000) 
        (0.29468432 0.09631303 0.10000000) 
        (0.29991117 0.09655958 0.10000000) 
        (0.30516573 0.09678463 0.10000000) 
        (0.31044737 0.09698811 0.10000000) 
        (0.31575549 0.09716996 0.10000000) 
        (0.32108946 0.09733014 0.10000000) 
        (0.32644865 0.09746859 0.10000000) 
        (0.33183244 0.09758530 0.10000000) 
        (0.33724020 0.09768024 0.10000000) 
        (0.34267130 0.09775339 0.10000000) 
        (0.34812509 0.09780474 0.10000000) 
        (0.35360094 0.09783429 0.10000000) 
        (0.35909821 0.09784204 0.10000000) 
        (0.36461624 0.09782802 0.10000000) 
        (0.37015438 0.09779225 0.10000000) 
        (0.37571200 0.09773475 0.10000000) 
        (0.38128842 0.09765557 0.10000000) 
        (0.38688299 0.09755476 0.10000000) 
        (0.39249506 0.09743236 0.10000000) 
        (0.39812394 0.09728844 0.10000000) 
        (0.40376899 0.09712308 0.10000000) 
        (0.40942953 0.09693636 0.10000000) 
        (0.41510488 0.09672835 0.10000000) 
        (0.42079437 0.09649917 0.10000000) 
        (0.42649732 0.09624890 0.10000000) 
        (0.43221305 0.09597767 0.10000000) 
        (0.43794088 0.09568560 0.10000000) 
        (0.44368011 0.09537281 0.10000000) 
        (0.44943006 0.09503944 0.10000000) 
        (0.45519004 0.09468564 0.10000000) 
        (0.46095934 0.09431155 0.10000000) 
        (0.46673728 0.09391734 0.10000000) 
        (0.47252316 0.09350318 0.10000000) 
        (0.47831626 0.09306925 0.10000000) 
        (0.48411588 0.09261572 0.10000000) 
        (0.48992131 0.09214280 0.10000000) 
        (0.49573185 0.09165069 0.10000000) 
        (0.50154678 0.09113958 0.10000000) 
        (0.50736537 0.09060971 0.10000000) 
        (0.51318692 0.09006129 0.10000000) 
        (0.51901070 0.08949456 0.10000000) 
        (0.52483599 0.08890975 0.10000000) 
        (0.53066205 0.08830712 0.10000000) 
        (0.53648817 0.08768692 0.10000000) 
        (0.54231360 0.08704941 0.10000000) 
        (0.54813761 0.08639487 0.10000000) 
        (0.55395947 0.08572357 0.10000000) 
        (0.55977843 0.08503579 0.10000000) 
        (0.56559375 0.08433184 0.10000000) 
        (0.57140469 0.08361200 0.10000000) 
        (0.57721050 0.08287660 0.10000000) 
        (0.58301042 0.08212593 0.10000000) 
        (0.58880371 0.08136033 0.10000000) 
        (0.59458962 0.08058012 0.10000000) 
        (0.60036737 0.07978564 0.10000000) 
        (0.60613621 0.07897723 0.10000000) 
        (0.61189539 0.07815523 0.10000000) 
        (0.61764412 0.07732001 0.10000000) 
        (0.62338165 0.07647191 0.10000000) 
        (0.62910720 0.07561133 0.10000000) 
        (0.63482000 0.07473861 0.10000000) 
        (0.64051927 0.07385415 0.10000000) 
        (0.64620424 0.07295834 0.10000000) 
        (0.65187412 0.07205156 0.10000000) 
        (0.65752813 0.07113420 0.10000000) 
        (0.66316548 0.07020669 0.10000000) 
        (0.66878539 0.06926942 0.10000000) 
        (0.67438706 0.06832280 0.10000000) 
        (0.67996969 0.06736726 0.10000000) 
        (0.68553250 0.06640323 0.10000000) 
        (0.69107468 0.06543112 0.10000000) 
        (0.69659543 0.06445137 0.10000000) 
        (0.70209394 0.06346443 0.10000000) 
        (0.70756941 0.06247073 0.10000000) 
        (0.71302103 0.06147072 0.10000000) 
        (0.71844799 0.06046485 0.10000000) 
        (0.72384947 0.05945357 0.10000000) 
        (0.72922465 0.05843735 0.10000000) 
        (0.73457271 0.05741664 0.10000000) 
        (0.73989284 0.05639190 0.10000000) 
        (0.74518420 0.05536362 0.10000000) 
        (0.75044597 0.05433224 0.10000000) 
        (0.75567732 0.05329826 0.10000000) 
        (0.76087742 0.05226214 0.10000000) 
        (0.76604543 0.05122435 0.10000000) 
        (0.77118052 0.05018539 0.10000000) 
        (0.77628184 0.04914572 0.10000000) 
        (0.78134855 0.04810584 0.10000000) 
        (0.78637981 0.04706621 0.10000000) 
        (0.79137477 0.04602734 0.10000000) 
        (0.79633259 0.04498969 0.10000000) 
        (0.80125241 0.04395376 0.10000000) 
        (0.80613338 0.04292003 0.10000000) 
        (0.81097464 0.04188899 0.10000000) 
        (0.81577534 0.04086112 0.10000000) 
        (0.82053461 0.03983689 0.10000000) 
        (0.82525161 0.03881681 0.10000000) 
        (0.82992545 0.03780134 0.10000000) 
        (0.83455528 0.03679096 0.10000000) 
        (0.83914024 0.03578616 0.10000000) 
        (0.84367944 0.03478740 0.10000000) 
        (0.84817203 0.03379516 0.10000000) 
        (0.85261714 0.03280992 0.10000000) 
        (0.85701388 0.03183213 0.10000000) 
        (0.86136139 0.03086225 0.10000000) 
        (0.86565879 0.02990076 0.10000000) 
        (0.86990521 0.02894810 0.10000000) 
        (0.87409976 0.02800473 0.10000000) 
        (0.87824158 0.02707108 0.10000000) 
        (0.88232978 0.02614760 0.10000000) 
        (0.88636349 0.02523473 0.10000000) 
        (0.89034182 0.02433290 0.10000000) 
        (0.89426391 0.02344252 0.10000000) 
        (0.89812886 0.02256402 0.10000000) 
        (0.90193580 0.02169780 0.10000000) 
        (0.90568386 0.02084427 0.10000000) 
        (0.90937216 0.02000382 0.10000000) 
        (0.91299981 0.01917684 0.10000000) 
        (0.91656595 0.01836370 0.10000000) 
        (0.92006970 0.01756479 0.10000000) 
        (0.92351019 0.01678045 0.10000000) 
        (0.92688655 0.01601104 0.10000000) 
        (0.93019790 0.01525691 0.10000000) 
        (0.93344339 0.01451837 0.10000000) 
        (0.93662215 0.01379577 0.10000000) 
        (0.93973332 0.01308940 0.10000000) 
        (0.94277604 0.01239957 0.10000000) 
        (0.94574945 0.01172657 0.10000000) 
        (0.94865272 0.01107067 0.10000000) 
        (0.95148498 0.01043213 0.10000000) 
        (0.95424541 0.00981122 0.10000000) 
        (0.95693315 0.00920817 0.10000000) 
        (0.95954739 0.00862320 0.10000000) 
        (0.96208729 0.00805653 0.10000000) 
        (0.96455204 0.00750836 0.10000000) 
        (0.96694082 0.00697887 0.10000000) 
        (0.96925283 0.00646824 0.10000000) 
        (0.97148726 0.00597663 0.10000000) 
        (0.97364332 0.00550417 0.10000000) 
        (0.97572024 0.00505099 0.10000000) 
        (0.97771722 0.00461721 0.10000000) 
        (0.97963352 0.00420291 0.10000000) 
        (0.98146836 0.00380819 0.10000000) 
        (0.98322101 0.00343311 0.10000000) 
        (0.98489073 0.00307770 0.10000000) 
        (0.98647678 0.00274202 0.10000000) 
        (0.98797847 0.00242606 0.10000000) 
        (0.98939507 0.00212984 0.10000000) 
        (0.99072591 0.00185332 0.10000000) 
        (0.99197031 0.00159648 0.10000000) 
        (0.99312759 0.00135927 0.10000000) 
        (0.99419712 0.00114160 0.10000000) 
        (0.99517826 0.00094341 0.10000000) 
        (0.99607039 0.00076457 0.10000000) 
        (0.99687291 0.00060497 0.10000000) 
        (1.00000000 0.00000000 0.10000000) 
        ) 
    // Upper left airfoil
    spline 5 8 ( 
        (0.00000000 0.00000000 0.00000000) 
        (0.00094032 0.00726267 0.00000000) 
        (0.00132951 0.00838279 0.00000000) 
        (0.00178537 0.00951117 0.00000000) 
        (0.00230773 0.01064741 0.00000000) 
        (0.00289639 0.01179112 0.00000000) 
        (0.00355119 0.01294190 0.00000000) 
        (0.00427194 0.01409934 0.00000000) 
        (0.00505843 0.01526304 0.00000000) 
        (0.00591046 0.01643258 0.00000000) 
        (0.00682783 0.01760757 0.00000000) 
        (0.00781033 0.01878760 0.00000000) 
        (0.00885774 0.01997224 0.00000000) 
        (0.00996984 0.02116110 0.00000000) 
        (0.01114639 0.02235375 0.00000000) 
        (0.01238717 0.02354978 0.00000000) 
        (0.01369193 0.02474878 0.00000000) 
        (0.01506043 0.02595033 0.00000000) 
        (0.01649241 0.02715401 0.00000000) 
        (0.01798763 0.02835942 0.00000000) 
        (0.01954581 0.02956612 0.00000000) 
        (0.02116671 0.03077371 0.00000000) 
        (0.02285003 0.03198177 0.00000000) 
        (0.02459550 0.03318988 0.00000000) 
        (0.02640285 0.03439762 0.00000000) 
        (0.02827178 0.03560459 0.00000000) 
        (0.03020200 0.03681036 0.00000000) 
        (0.03219321 0.03801452 0.00000000) 
        (0.03424510 0.03921667 0.00000000) 
        (0.03635737 0.04041638 0.00000000) 
        (0.03852971 0.04161325 0.00000000) 
        (0.04076178 0.04280687 0.00000000) 
        (0.04305328 0.04399683 0.00000000) 
        (0.04540386 0.04518272 0.00000000) 
        (0.04781320 0.04636414 0.00000000) 
        (0.05028094 0.04754070 0.00000000) 
        (0.05280676 0.04871198 0.00000000) 
        (0.05539029 0.04987759 0.00000000) 
        (0.05803117 0.05103713 0.00000000) 
        (0.06072906 0.05219022 0.00000000) 
        (0.06348359 0.05333646 0.00000000) 
        (0.06629437 0.05447546 0.00000000) 
        (0.06916105 0.05560684 0.00000000) 
        (0.07208323 0.05673021 0.00000000) 
        (0.07506053 0.05784520 0.00000000) 
        (0.07809256 0.05895142 0.00000000) 
        (0.08117892 0.06004851 0.00000000) 
        (0.08431922 0.06113610 0.00000000) 
        (0.08751305 0.06221382 0.00000000) 
        (0.09076000 0.06328131 0.00000000) 
        (0.09405966 0.06433821 0.00000000) 
        (0.09741160 0.06538417 0.00000000) 
        (0.10081540 0.06641882 0.00000000) 
        (0.10427063 0.06744184 0.00000000) 
        (0.10777686 0.06845287 0.00000000) 
        (0.11133365 0.06945157 0.00000000) 
        (0.11494055 0.07043762 0.00000000) 
        (0.11859713 0.07141068 0.00000000) 
        (0.12230292 0.07237043 0.00000000) 
        (0.12605747 0.07331655 0.00000000) 
        (0.12986032 0.07424871 0.00000000) 
        (0.13371101 0.07516663 0.00000000) 
        (0.13760905 0.07606997 0.00000000) 
        (0.14155398 0.07695846 0.00000000) 
        (0.14554532 0.07783178 0.00000000) 
        (0.14958259 0.07868966 0.00000000) 
        (0.15366529 0.07953180 0.00000000) 
        (0.15779294 0.08035793 0.00000000) 
        (0.16196503 0.08116777 0.00000000) 
        (0.16618108 0.08196107 0.00000000) 
        (0.17044056 0.08273754 0.00000000) 
        (0.17474298 0.08349694 0.00000000) 
        (0.17908781 0.08423903 0.00000000) 
        (0.18347455 0.08496354 0.00000000) 
        (0.18790267 0.08567025 0.00000000) 
        (0.19237164 0.08635892 0.00000000) 
        (0.19688094 0.08702933 0.00000000) 
        (0.20143002 0.08768126 0.00000000) 
        (0.20601836 0.08831449 0.00000000) 
        (0.21064541 0.08892883 0.00000000) 
        (0.21531062 0.08952405 0.00000000) 
        (0.22001345 0.09009999 0.00000000) 
        (0.22475334 0.09065644 0.00000000) 
        (0.22952973 0.09119323 0.00000000) 
        (0.23434207 0.09171018 0.00000000) 
        (0.23918978 0.09220713 0.00000000) 
        (0.24407231 0.09268392 0.00000000) 
        (0.25000000 0.09314040 0.00000000) 
        ) 
    spline 17 20 ( 
        (0.00000000 0.00000000 0.10000000) 
        (0.00094032 0.00726267 0.10000000) 
        (0.00132951 0.00838279 0.10000000) 
        (0.00178537 0.00951117 0.10000000) 
        (0.00230773 0.01064741 0.10000000) 
        (0.00289639 0.01179112 0.10000000) 
        (0.00355119 0.01294190 0.10000000) 
        (0.00427194 0.01409934 0.10000000) 
        (0.00505843 0.01526304 0.10000000) 
        (0.00591046 0.01643258 0.10000000) 
        (0.00682783 0.01760757 0.10000000) 
        (0.00781033 0.01878760 0.10000000) 
        (0.00885774 0.01997224 0.10000000) 
        (0.00996984 0.02116110 0.10000000) 
        (0.01114639 0.02235375 0.10000000) 
        (0.01238717 0.02354978 0.10000000) 
        (0.01369193 0.02474878 0.10000000) 
        (0.01506043 0.02595033 0.10000000) 
        (0.01649241 0.02715401 0.10000000) 
        (0.01798763 0.02835942 0.10000000) 
        (0.01954581 0.02956612 0.10000000) 
        (0.02116671 0.03077371 0.10000000) 
        (0.02285003 0.03198177 0.10000000) 
        (0.02459550 0.03318988 0.10000000) 
        (0.02640285 0.03439762 0.10000000) 
        (0.02827178 0.03560459 0.10000000) 
        (0.03020200 0.03681036 0.10000000) 
        (0.03219321 0.03801452 0.10000000) 
        (0.03424510 0.03921667 0.10000000) 
        (0.03635737 0.04041638 0.10000000) 
        (0.03852971 0.04161325 0.10000000) 
        (0.04076178 0.04280687 0.10000000) 
        (0.04305328 0.04399683 0.10000000) 
        (0.04540386 0.04518272 0.10000000) 
        (0.04781320 0.04636414 0.10000000) 
        (0.05028094 0.04754070 0.10000000) 
        (0.05280676 0.04871198 0.10000000) 
        (0.05539029 0.04987759 0.10000000) 
        (0.05803117 0.05103713 0.10000000) 
        (0.06072906 0.05219022 0.10000000) 
        (0.06348359 0.05333646 0.10000000) 
        (0.06629437 0.05447546 0.10000000) 
        (0.06916105 0.05560684 0.10000000) 
        (0.07208323 0.05673021 0.10000000) 
        (0.07506053 0.05784520 0.10000000) 
        (0.07809256 0.05895142 0.10000000) 
        (0.08117892 0.06004851 0.10000000) 
        (0.08431922 0.06113610 0.10000000) 
        (0.08751305 0.06221382 0.10000000) 
        (0.09076000 0.06328131 0.10000000) 
        (0.09405966 0.06433821 0.10000000) 
        (0.09741160 0.06538417 0.10000000) 
        (0.10081540 0.06641882 0.10000000) 
        (0.10427063 0.06744184 0.10000000) 
        (0.10777686 0.06845287 0.10000000) 
        (0.11133365 0.06945157 0.10000000) 
        (0.11494055 0.07043762 0.10000000) 
        (0.11859713 0.07141068 0.10000000) 
        (0.12230292 0.07237043 0.10000000) 
        (0.12605747 0.07331655 0.10000000) 
        (0.12986032 0.07424871 0.10000000) 
        (0.13371101 0.07516663 0.10000000) 
        (0.13760905 0.07606997 0.10000000) 
        (0.14155398 0.07695846 0.10000000) 
        (0.14554532 0.07783178 0.10000000) 
        (0.14958259 0.07868966 0.10000000) 
        (0.15366529 0.07953180 0.10000000) 
        (0.15779294 0.08035793 0.10000000) 
        (0.16196503 0.08116777 0.10000000) 
        (0.16618108 0.08196107 0.10000000) 
        (0.17044056 0.08273754 0.10000000) 
        (0.17474298 0.08349694 0.10000000) 
        (0.17908781 0.08423903 0.10000000) 
        (0.18347455 0.08496354 0.10000000) 
        (0.18790267 0.08567025 0.10000000) 
        (0.19237164 0.08635892 0.10000000) 
        (0.19688094 0.08702933 0.10000000) 
        (0.20143002 0.08768126 0.10000000) 
        (0.20601836 0.08831449 0.10000000) 
        (0.21064541 0.08892883 0.10000000) 
        (0.21531062 0.08952405 0.10000000) 
        (0.22001345 0.09009999 0.10000000) 
        (0.22475334 0.09065644 0.10000000) 
        (0.22952973 0.09119323 0.10000000) 
        (0.23434207 0.09171018 0.10000000) 
        (0.23918978 0.09220713 0.10000000) 
        (0.24407231 0.09268392 0.10000000) 
        (0.25000000 0.09314040 0.10000000) 
        ) 
    // Lower left airfoil
    spline 5 3 ( 
        (0.00000000 0.00000000 0.00000000) 
        (0.00110284 -0.00440316 0.00000000) 
        (0.00152502 -0.00539439 0.00000000) 
        (0.00201558 -0.00637250 0.00000000) 
        (0.00257461 -0.00733716 0.00000000) 
        (0.00320221 -0.00828803 0.00000000) 
        (0.00389844 -0.00922477 0.00000000) 
        (0.00466338 -0.01014705 0.00000000) 
        (0.00549710 -0.01105455 0.00000000) 
        (0.00639966 -0.01194694 0.00000000) 
        (0.00737110 -0.01282393 0.00000000) 
        (0.00841147 -0.01368520 0.00000000) 
        (0.00952083 -0.01453044 0.00000000) 
        (0.01069919 -0.01535938 0.00000000) 
        (0.01194660 -0.01617171 0.00000000) 
        (0.01326306 -0.01696716 0.00000000) 
        (0.01464860 -0.01774545 0.00000000) 
        (0.01610323 -0.01850632 0.00000000) 
        (0.01762694 -0.01924950 0.00000000) 
        (0.01921973 -0.01997474 0.00000000) 
        (0.02088159 -0.02068180 0.00000000) 
        (0.02261250 -0.02137044 0.00000000) 
        (0.02441244 -0.02204043 0.00000000) 
        (0.02628136 -0.02269154 0.00000000) 
        (0.02821924 -0.02332356 0.00000000) 
        (0.03022603 -0.02393628 0.00000000) 
        (0.03230167 -0.02452951 0.00000000) 
        (0.03444610 -0.02510306 0.00000000) 
        (0.03665925 -0.02565675 0.00000000) 
        (0.03894106 -0.02619040 0.00000000) 
        (0.04129142 -0.02670385 0.00000000) 
        (0.04371026 -0.02719695 0.00000000) 
        (0.04619748 -0.02766955 0.00000000) 
        (0.04875296 -0.02812152 0.00000000) 
        (0.05137660 -0.02855273 0.00000000) 
        (0.05406827 -0.02896308 0.00000000) 
        (0.05682785 -0.02935244 0.00000000) 
        (0.05965519 -0.02972073 0.00000000) 
        (0.06255015 -0.03006786 0.00000000) 
        (0.06551257 -0.03039376 0.00000000) 
        (0.06854229 -0.03069836 0.00000000) 
        (0.07163915 -0.03098161 0.00000000) 
        (0.07480295 -0.03124345 0.00000000) 
        (0.07803351 -0.03148387 0.00000000) 
        (0.08133063 -0.03170283 0.00000000) 
        (0.08469410 -0.03190033 0.00000000) 
        (0.08812371 -0.03207637 0.00000000) 
        (0.09161923 -0.03223096 0.00000000) 
        (0.09518043 -0.03236411 0.00000000) 
        (0.09880705 -0.03247587 0.00000000) 
        (0.10249885 -0.03256627 0.00000000) 
        (0.10625556 -0.03263539 0.00000000) 
        (0.11007691 -0.03268327 0.00000000) 
        (0.11396261 -0.03271001 0.00000000) 
        (0.11791236 -0.03271570 0.00000000) 
        (0.12192585 -0.03270043 0.00000000) 
        (0.12600278 -0.03266433 0.00000000) 
        (0.13014282 -0.03260753 0.00000000) 
        (0.13434561 -0.03253015 0.00000000) 
        (0.13861082 -0.03243236 0.00000000) 
        (0.14293809 -0.03231432 0.00000000) 
        (0.14732703 -0.03217619 0.00000000) 
        (0.15177727 -0.03201818 0.00000000) 
        (0.15628840 -0.03184047 0.00000000) 
        (0.16086002 -0.03164329 0.00000000) 
        (0.16549171 -0.03142685 0.00000000) 
        (0.17018304 -0.03119138 0.00000000) 
        (0.17493354 -0.03093715 0.00000000) 
        (0.17974278 -0.03066440 0.00000000) 
        (0.18461027 -0.03037340 0.00000000) 
        (0.18953552 -0.03006445 0.00000000) 
        (0.19451805 -0.02973783 0.00000000) 
        (0.19955732 -0.02939385 0.00000000) 
        (0.20465283 -0.02903283 0.00000000) 
        (0.20980402 -0.02865510 0.00000000) 
        (0.21501034 -0.02826100 0.00000000) 
        (0.22027123 -0.02785087 0.00000000) 
        (0.22558608 -0.02742509 0.00000000) 
        (0.23095432 -0.02698403 0.00000000) 
        (0.23637531 -0.02652807 0.00000000) 
        (0.24184843 -0.02605761 0.00000000) 
        (0.25000000 -0.02557305 0.00000000) 
        ) 
    spline 17 15 ( 