/*--------------------------------*- C++ -*----------------------------------*\
| =========                 |                                                 |
| \\      /  F ield         | OpenFOAM: The Open Source CFD Toolbox           |
|  \\    /   O peration     | Version:  5                                     |
|   \\  /    A nd           | Web:      www.OpenFOAM.org                      |
|    \\/     M anipulation  |                                                 |
\*---------------------------------------------------------------------------*/
FoamFile
{
    version     2.0;
    format      ascii;
    class       volScalarField;
    location    "0";
    object      epsilon;
}
// * * * * * * * * * * * * * * * * * * * * * * * * * * * * * * * * * * * * * //

dimensions      [0 2 -3 0 0 0 0];

internalField   uniform 200;

boundaryField
{
    inlet
    {
        type            turbulentMixingLengthDissipationRateInlet;
        mixingLength    0.005;
        value           uniform 200;
    }
    outlet
    {
        type            inletOutlet;
        inletValue      uniform 200;
        value           uniform 200;
    }
    compressor
    {
        type            inletOutlet;
        inletValue      uniform 200;
        value           uniform 200;
    }
    upper
    {
        type            inletOutlet;
        inletValue      uniform 200;
        value           uniform 200;
    }
    lower
    {
        type            inletOutlet;
        inletValue      uniform 200;
        value           uniform 200;
    }
    cowl
    {
        type            epsilonWallFunction;
        Cmu             0.09;
        kappa           0.41;
        E               9.8;
        value           uniform 200;
    }
    axis
    {
        type            epsilonWallFunction;
        Cmu             0.09;
        kappa           0.41;
        E               9.8;
        value           uniform 200;
    }
    defaultFaces
    {
    	type			empty;
    }
}


// ************************************************************************* //
