/*--------------------------------*- C++ -*----------------------------------*\ 
| =========                 |                                                 | 
| \      /  F ield         | OpenFOAM: The Open Source CFD Toolbox           | 
|  \    /   O peration     | Version:  5                                     | 
|   \  /    A nd           | Web:      www.OpenFOAM.org                      | 
|    \/     M anipulation  |                                                 | 
\*---------------------------------------------------------------------------*/ 

FoamFile 
{ 
    version     2.0; 
    format      ascii; 
    class       dictionary; 
    object      blockMeshDict;; 
} 
// * * * * * * * * * * * * * * * * * * * * * * * * * * * * * * * * * * * * * // 

convertToMeters 1; 

vertices 
( 
    (0.00 -0.01 0.00) 
    (1.00 -0.01 0.00) 
    (1.00 0.01 0.00) 
    (0.00 0.01 0.00) 
    (0.00 -0.01 0.01) 
    (1.00 -0.01 0.01) 
    (1.00 0.01 0.01) 
    (0.00 0.01 0.01) 
); 

blocks 
( 
    hex (0 1 2 3 4 5 6 7) (250 10 1) simpleGrading 
    ( 
     ( 
     (0.100 0.300 20.000) 
     (0.200 0.150 1.000) 
     (0.400 0.300 1.000) 
     (0.300 0.250 0.600) 
     ) 
    1 
    1 
    ) 
); 

edges 
( 
); 

boundary 
( 
 
); 
