/*--------------------------------*- C++ -*----------------------------------*\ 
| =========                 |                                                 | 
| \      /  F ield         | OpenFOAM: The Open Source CFD Toolbox           | 
|  \    /   O peration     | Version:  5                                     | 
|   \  /    A nd           | Web:      www.OpenFOAM.org                      | 
|    \/     M anipulation  |                                                 | 
\*---------------------------------------------------------------------------*/ 

FoamFile 
{ 
    version     2.0; 
    format      ascii; 
    class       dictionary; 
    object      blockMeshDict;; 
} 
// * * * * * * * * * * * * * * * * * * * * * * * * * * * * * * * * * * * * * // 

convertToMeters 1; 

vertices 
( 
    (0.00 0.08 0.00) 
    (1.00 -0.01 0.00) 
    (1.00 0.01 0.00) 
    (0.00 0.10 0.00) 
    (0.00 0.08 0.01) 
    (1.00 -0.01 0.01) 
    (1.00 0.01 0.01) 
    (0.00 0.10 0.01) 
); 

blocks 
( 
    hex (0 1 2 3 4 5 6 7) (250 10 1) simpleGrading 
    ( 
     ( 
     (0.100 0.300 20.000) 
     (0.200 0.150 1.000) 
     (0.400 0.300 1.000) 
     (0.300 0.250 0.600) 
     ) 
    1 
    1 
    ) 
); 

edges 
( 
    spline 0 1 ( 
        (0.00293374 0.07719380 0.00000000) 
        (0.00301739 0.07575904 0.00000000) 
        (0.00314996 0.07478461 0.00000000) 
        (0.00330644 0.07398072 0.00000000) 
        (0.00348051 0.07327079 0.00000000) 
        (0.00366963 0.07262126 0.00000000) 
        (0.00387259 0.07201381 0.00000000) 
        (0.00408882 0.07143719 0.00000000) 
        (0.00431812 0.07088392 0.00000000) 
        (0.00456046 0.07034868 0.00000000) 
        (0.00481599 0.06982758 0.00000000) 
        (0.00508494 0.06931762 0.00000000) 
        (0.00536761 0.06881646 0.00000000) 
        (0.00566437 0.06832222 0.00000000) 
        (0.00597565 0.06783336 0.00000000) 
        (0.00630192 0.06734857 0.00000000) 
        (0.00664367 0.06686679 0.00000000) 
        (0.00700147 0.06638707 0.00000000) 
        (0.00737590 0.06590860 0.00000000) 
        (0.00776757 0.06543068 0.00000000) 
        (0.00817714 0.06495269 0.00000000) 
        (0.00860531 0.06447405 0.00000000) 
        (0.00905280 0.06399427 0.00000000) 
        (0.00952444 0.06355951 0.00000000) 
        (0.01001634 0.06311551 0.00000000) 
        (0.01052855 0.06265316 0.00000000) 
        (0.01106193 0.06217172 0.00000000) 
        (0.01161734 0.06167038 0.00000000) 
        (0.01219570 0.06114834 0.00000000) 
        (0.01279795 0.06060472 0.00000000) 
        (0.01342914 0.06008504 0.00000000) 
        (0.01409208 0.05960868 0.00000000) 
        (0.01478240 0.05911263 0.00000000) 
        (0.01550125 0.05859609 0.00000000) 
        (0.01624979 0.05805821 0.00000000) 
        (0.01702926 0.05749810 0.00000000) 
        (0.01784686 0.05698261 0.00000000) 
        (0.01869971 0.05646276 0.00000000) 
        (0.01958781 0.05592143 0.00000000) 
        (0.02051259 0.05535774 0.00000000) 
        (0.02147725 0.05478984 0.00000000) 
        (0.02248626 0.05424998 0.00000000) 
        (0.02353697 0.05368782 0.00000000) 
        (0.02463108 0.05310243 0.00000000) 
        (0.02577293 0.05252189 0.00000000) 
        (0.02696481 0.05194997 0.00000000) 
        (0.02820593 0.05135443 0.00000000) 
        (0.02949929 0.05074533 0.00000000) 
        (0.03084996 0.05015541 0.00000000) 
        (0.03225644 0.04954113 0.00000000) 
        (0.03372244 0.04891777 0.00000000) 
        (0.03525203 0.04830311 0.00000000) 
        (0.03684481 0.04766306 0.00000000) 
        (0.03850651 0.04703214 0.00000000) 
        (0.04023787 0.04638674 0.00000000) 
        (0.04204244 0.04573391 0.00000000) 
        (0.04392376 0.04507913 0.00000000) 
        (0.04588397 0.04441077 0.00000000) 
        (0.04792766 0.04374320 0.00000000) 
        (0.05005710 0.04306316 0.00000000) 
        (0.05227668 0.04237978 0.00000000) 
        (0.05458990 0.04169038 0.00000000) 
        (0.05700008 0.04098845 0.00000000) 
        (0.05951277 0.04029103 0.00000000) 
        (0.06213061 0.03958025 0.00000000) 
        (0.06485863 0.03886321 0.00000000) 
        (0.06770200 0.03814673 0.00000000) 
        (0.07066463 0.03742116 0.00000000) 
        (0.07375166 0.03668848 0.00000000) 
        (0.07696851 0.03595171 0.00000000) 
        (0.08032088 0.03521440 0.00000000) 
        (0.08381394 0.03447175 0.00000000) 
        (0.08745363 0.03372481 0.00000000) 
        (0.09124607 0.03297438 0.00000000) 
        (0.09519766 0.03222115 0.00000000) 
        (0.09931503 0.03146563 0.00000000) 
        (0.10451813 0.03054938 0.00000000) 
        (0.10972507 0.02967698 0.00000000) 
        (0.11493541 0.02884344 0.00000000) 
        (0.12014873 0.02804404 0.00000000) 
        (0.12536511 0.02727956 0.00000000) 
        (0.13058441 0.02654852 0.00000000) 
        (0.13580622 0.02584601 0.00000000) 
        (0.14103052 0.02517209 0.00000000) 
        (0.14625737 0.02452734 0.00000000) 
        (0.15148635 0.02390690 0.00000000) 
        (0.15671742 0.02331037 0.00000000) 
        (0.16195075 0.02273956 0.00000000) 
        (0.16718591 0.02218976 0.00000000) 
        (0.17242285 0.02166030 0.00000000) 
        (0.17766179 0.02115368 0.00000000) 
        (0.18290233 0.02066543 0.00000000) 
        (0.18814443 0.02019486 0.00000000) 
        (0.19338828 0.01974440 0.00000000) 
        (0.19863356 0.01931027 0.00000000) 
        (0.20388021 0.01889177 0.00000000) 
        (0.20912840 0.01849086 0.00000000) 
        (0.21437787 0.01810468 0.00000000) 
        (0.21962856 0.01773238 0.00000000) 
        (0.22488061 0.01737560 0.00000000) 
        (0.23013382 0.01703210 0.00000000) 
        (0.23538811 0.01670099 0.00000000) 
        (0.24064361 0.01638366 0.00000000) 
        (0.24590016 0.01607833 0.00000000) 
        (0.25115768 0.01578410 0.00000000) 
        (0.25641628 0.01550214 0.00000000) 
        (0.26167582 0.01523103 0.00000000) 
        (0.26693623 0.01496988 0.00000000) 
        (0.27219761 0.01471971 0.00000000) 
        (0.27745984 0.01447934 0.00000000) 
        (0.28272286 0.01424793 0.00000000) 
        (0.28798674 0.01402635 0.00000000) 
        (0.29325139 0.01381363 0.00000000) 
        (0.29851674 0.01360897 0.00000000) 
        (0.30385309 0.01341059 0.00000000) 
        (0.30919016 0.01322037 0.00000000) 
        (0.31452787 0.01303754 0.00000000) 
        (0.31986631 0.01286306 0.00000000) 
        (0.32520537 0.01269571 0.00000000) 
        (0.33054502 0.01253499 0.00000000) 
        (0.33588534 0.01238196 0.00000000) 
        (0.34122619 0.01223512 0.00000000) 
        (0.34656759 0.01209438 0.00000000) 
        (0.35190957 0.01196041 0.00000000) 
        (0.35725204 0.01183196 0.00000000) 
        (0.36259500 0.01170912 0.00000000) 
        (0.36793847 0.01159217 0.00000000) 
        (0.37328238 0.01148015 0.00000000) 
        (0.37862673 0.01137327 0.00000000) 
        (0.38397154 0.01127151 0.00000000) 
        (0.38931672 0.01117412 0.00000000) 
        (0.39466232 0.01108143 0.00000000) 
        (0.40000830 0.01099315 0.00000000) 
        (0.40535462 0.01090875 0.00000000) 
        (0.41070132 0.01082862 0.00000000) 
        (0.41604834 0.01075226 0.00000000) 
        (0.42139567 0.01067933 0.00000000) 
        (0.42674333 0.01061024 0.00000000) 
        (0.43209127 0.01054437 0.00000000) 
        (0.43743948 0.01048150 0.00000000) 
        (0.44278798 0.01042207 0.00000000) 
        (0.44813673 0.01036536 0.00000000) 
        (0.45348571 0.01031133 0.00000000) 
        (0.45883494 0.01026020 0.00000000) 
        (0.46418438 0.01021142 0.00000000) 
        (0.46953402 0.01016501 0.00000000) 
        (0.47488388 0.01012103 0.00000000) 
        (0.48023391 0.01007904 0.00000000) 
        (0.48558413 0.01003912 0.00000000) 
        (0.49093451 0.01000120 0.00000000) 
        (0.49628505 0.00996496 0.00000000) 
        (0.50163574 0.00993050 0.00000000) 
        (0.50698657 0.00989765 0.00000000) 
        (0.51233753 0.00986620 0.00000000) 
        (0.51768861 0.00983623 0.00000000) 
        (0.52303981 0.00980755 0.00000000) 
        (0.52839110 0.00977998 0.00000000) 
        (0.53374250 0.00975363 0.00000000) 
        (0.53909399 0.00972827 0.00000000) 
        (0.54444555 0.00970378 0.00000000) 
        (0.54979720 0.00968024 0.00000000) 
        (0.55514891 0.00965742 0.00000000) 
        (0.56050067 0.00963526 0.00000000) 
        (0.56585250 0.00961378 0.00000000) 
        (0.57120437 0.00959281 0.00000000) 
        (0.57655628 0.00957229 0.00000000) 
        (0.58190823 0.00955221 0.00000000) 
        (0.58726021 0.00953243 0.00000000) 
        (0.59261221 0.00951293 0.00000000) 
        (0.59796425 0.00949390 0.00000000) 
        (0.60331637 0.00947575 0.00000000) 
        (0.60866812 0.00945343 0.00000000) 
        (0.61401933 0.00942491 0.00000000) 
        (0.61937004 0.00939074 0.00000000) 
        (0.62472019 0.00935003 0.00000000) 
        (0.63006980 0.00930322 0.00000000) 
        (0.63541890 0.00925061 0.00000000) 
        (0.64076740 0.00919107 0.00000000) 
        (0.64611537 0.00912552 0.00000000) 
        (0.65146281 0.00905394 0.00000000) 
        (0.65680964 0.00897527 0.00000000) 
        (0.66215593 0.00889059 0.00000000) 
        (0.66750168 0.00879957 0.00000000) 
        (0.67284681 0.00870153 0.00000000) 
        (0.67819140 0.00859740 0.00000000) 
        (0.68353541 0.00848662 0.00000000) 
        (0.68887882 0.00836894 0.00000000) 
        (0.69422169 0.00824507 0.00000000) 
        (0.69956396 0.00811429 0.00000000) 
        (0.70575072 0.00795446 0.00000000) 
        (0.71188511 0.00778710 0.00000000) 
        (0.71796760 0.00761257 0.00000000) 
        (0.72399858 0.00743053 0.00000000) 
        (0.72997856 0.00724190 0.00000000) 
        (0.73590790 0.00704601 0.00000000) 
        (0.74178710 0.00684389 0.00000000) 
        (0.74761653 0.00663498 0.00000000) 
        (0.75339667 0.00642002 0.00000000) 
        (0.75912791 0.00619892 0.00000000) 
        (0.76481067 0.00597175 0.00000000) 
        (0.77044541 0.00573930 0.00000000) 
        (0.77603244 0.00550058 0.00000000) 
        (0.78157228 0.00525706 0.00000000) 
        (0.78706527 0.00500799 0.00000000) 
        (0.79251182 0.00475384 0.00000000) 
        (0.79791238 0.00449530 0.00000000) 
        (0.80326724 0.00423136 0.00000000) 
        (0.80857688 0.00396311 0.00000000) 
        (0.81384170 0.00369087 0.00000000) 
        (0.81906198 0.00341377 0.00000000) 
        (0.82423819 0.00313275 0.00000000) 
        (0.82937071 0.00284811 0.00000000) 
        (0.83445988 0.00255957 0.00000000) 
        (0.83950606 0.00226706 0.00000000) 
        (0.84450965 0.00197132 0.00000000) 
        (0.84947104 0.00167247 0.00000000) 
        (0.85439053 0.00137027 0.00000000) 
        (0.85926849 0.00106470 0.00000000) 
        (0.86410531 0.00075638 0.00000000) 
        (0.86890133 0.00044544 0.00000000) 
        (0.87365692 0.00013196 0.00000000) 
        (0.87837238 -0.00018421 0.00000000) 
        (0.88304805 -0.00050303 0.00000000) 
        (0.88768431 -0.00082402 0.00000000) 
        (0.89228149 -0.00114708 0.00000000) 
        (0.89683993 -0.00147211 0.00000000) 
        (0.90135995 -0.00179900 0.00000000) 
        (0.90584189 -0.00212765 0.00000000) 
        (0.91028606 -0.00245803 0.00000000) 
        (0.91469277 -0.00279026 0.00000000) 
        (0.91906236 -0.00312393 0.00000000) 
        (0.92339515 -0.00345893 0.00000000) 
        (0.92769145 -0.00379519 0.00000000) 
        (0.93195158 -0.00413259 0.00000000) 
        (0.93617585 -0.00447106 0.00000000) 
        (0.94036455 -0.00481050 0.00000000) 
        (0.94451800 -0.00515083 0.00000000) 
        (0.94863650 -0.00549196 0.00000000) 
        (0.95272034 -0.00583379 0.00000000) 
        (0.95676982 -0.00617626 0.00000000) 
        (0.96078523 -0.00651927 0.00000000) 
        (0.96476687 -0.00686274 0.00000000) 
        (0.96871501 -0.00720659 0.00000000) 
        (0.97262996 -0.00755075 0.00000000) 
        (0.97651199 -0.00789513 0.00000000) 
        (0.98036138 -0.00823966 0.00000000) 
        (0.98417841 -0.00858426 0.00000000) 
        (0.98796336 -0.00892886 0.00000000) 
        (0.99171650 -0.00927339 0.00000000) 
        (0.99543811 -0.00961777 0.00000000) 
        (0.99912844 -0.00996195 0.00000000) 
        ) 
    polyLine 3 2 ( 
        (0.00494916 0.10023011 0.00000000) 
        (0.00528196 0.10164321 0.00000000) 
        (0.00558357 0.10260091 0.00000000) 
        (0.00587957 0.10339170 0.00000000) 
        (0.00617689 0.10409050 0.00000000) 
        (0.00647880 0.10473028 0.00000000) 
        (0.00678729 0.10532899 0.00000000) 
        (0.00710372 0.10589764 0.00000000) 
        (0.00742918 0.10644359 0.00000000) 
        (0.00776459 0.10697203 0.00000000) 
        (0.00811075 0.10748680 0.00000000) 
        (0.00846840 0.10799082 0.00000000) 
        (0.00883828 0.10848640 0.00000000) 
        (0.00922106 0.10897538 0.00000000) 
        (0.00961745 0.10945927 0.00000000) 
        (0.01002813 0.10993935 0.00000000) 
        (0.01045380 0.11041667 0.00000000) 
        (0.01089082 0.11084254 0.00000000) 
        (0.01134437 0.11126841 0.00000000) 
        (0.01181665 0.11171189 0.00000000) 
        (0.01230845 0.11217368 0.00000000) 
        (0.01282056 0.11265456 0.00000000) 
        (0.01335383 0.11315530 0.00000000) 
        (0.01390913 0.11367672 0.00000000) 
        (0.01448737 0.11421969 0.00000000) 
        (0.01507948 0.11467049 0.00000000) 
        (0.01569517 0.11512989 0.00000000) 
        (0.01633629 0.11560826 0.00000000) 
        (0.01700391 0.11610640 0.00000000) 
        (0.01769910 0.11662512 0.00000000) 
        (0.01842301 0.11716526 0.00000000) 
        (0.01916998 0.11764933 0.00000000) 
        (0.01994667 0.11814040 0.00000000) 
        (0.02075544 0.11865176 0.00000000) 
        (0.02159763 0.11918425 0.00000000) 
        (0.02247461 0.11973874 0.00000000) 
        (0.02338166 0.12024570 0.00000000) 
        (0.02432580 0.12076916 0.00000000) 
        (0.02530894 0.12131425 0.00000000) 
        (0.02633270 0.12188186 0.00000000) 
        (0.02739417 0.12242061 0.00000000) 
        (0.02849840 0.12296903 0.00000000) 
        (0.02964825 0.12354010 0.00000000) 
        (0.03084435 0.12412052 0.00000000) 
        (0.03208603 0.12468100 0.00000000) 
        (0.03337901 0.12526463 0.00000000) 
        (0.03472484 0.12586596 0.00000000) 
        (0.03612217 0.12644523 0.00000000) 
        (0.03757723 0.12704843 0.00000000) 
        (0.03909096 0.12766004 0.00000000) 
        (0.04066432 0.12826379 0.00000000) 
        (0.04230269 0.12889248 0.00000000) 
        (0.04400538 0.12950867 0.00000000) 
        (0.04577768 0.13014203 0.00000000) 
        (0.04762113 0.13077777 0.00000000) 
        (0.04953893 0.13141912 0.00000000) 
        (0.05153433 0.13206833 0.00000000) 
        (0.05361007 0.13272045 0.00000000) 
        (0.05576977 0.13337900 0.00000000) 
        (0.05801691 0.13404430 0.00000000) 
        (0.06035446 0.13470928 0.00000000) 
        (0.06278746 0.13538895 0.00000000) 
        (0.06531769 0.13605916 0.00000000) 
        (0.06795099 0.13674040 0.00000000) 
        (0.07069126 0.13742893 0.00000000) 
        (0.07354165 0.13811053 0.00000000) 
        (0.07650793 0.13879892 0.00000000) 
        (0.07959465 0.13949171 0.00000000) 
        (0.08280652 0.14018605 0.00000000) 
        (0.08614813 0.14087527 0.00000000) 
        (0.08962542 0.14156576 0.00000000) 
        (0.09324384 0.14225593 0.00000000) 
        (0.09700910 0.14294437 0.00000000) 
        (0.10092716 0.14362979 0.00000000) 
        (0.10500425 0.14431098 0.00000000) 
        (0.10924685 0.14498683 0.00000000) 
        (0.11460088 0.14579576 0.00000000) 
        (0.11995047 0.14655379 0.00000000) 
        (0.12529591 0.14726450 0.00000000) 
        (0.13063774 0.14793397 0.00000000) 
        (0.13597584 0.14856079 0.00000000) 
        (0.14131031 0.14914610 0.00000000) 
        (0.14664165 0.14969561 0.00000000) 
        (0.15196981 0.15020873 0.00000000) 
        (0.15729469 0.15068445 0.00000000) 
        (0.16261680 0.15112849 0.00000000) 
        (0.16793616 0.15154107 0.00000000) 
        (0.17325251 0.15191927 0.00000000) 
        (0.17856637 0.15226900 0.00000000) 
        (0.18387781 0.15259109 0.00000000) 
        (0.18918648 0.15288148 0.00000000) 
        (0.19449286 0.15314577 0.00000000) 
        (0.19979704 0.15338484 0.00000000) 
        (0.20509876 0.15359582 0.00000000) 
        (0.21039830 0.15378190 0.00000000) 
        (0.21569581 0.15394475 0.00000000) 
        (0.22099114 0.15408261 0.00000000) 
        (0.22628436 0.15419647 0.00000000) 
        (0.23157570 0.15428879 0.00000000) 
        (0.23686509 0.15435878 0.00000000) 
        (0.24215243 0.15440550 0.00000000) 
        (0.24743802 0.15443211 0.00000000) 
        (0.25272187 0.15443874 0.00000000) 
        (0.25800372 0.15442266 0.00000000) 
        (0.26328393 0.15438771 0.00000000) 
        (0.26856251 0.15433422 0.00000000) 
        (0.27383926 0.15425976 0.00000000) 
        (0.27911439 0.15416686 0.00000000) 
        (0.28438800 0.15405647 0.00000000) 
        (0.28965994 0.15392711 0.00000000) 
        (0.29493029 0.15377945 0.00000000) 
        (0.30019918 0.15361522 0.00000000) 
        (0.30546657 0.15343382 0.00000000) 
        (0.31073237 0.15323422 0.00000000) 
        (0.31606698 0.15301593 0.00000000) 
        (0.32140017 0.15278143 0.00000000) 
        (0.32673176 0.15252864 0.00000000) 
        (0.33206201 0.15226052 0.00000000) 
        (0.33739093 0.15197725 0.00000000) 
        (0.34271830 0.15167623 0.00000000) 
        (0.34804439 0.15136055 0.00000000) 
        (0.35336921 0.15103043 0.00000000) 
        (0.35869257 0.15068354 0.00000000) 
        (0.36401467 0.15032236 0.00000000) 
        (0.36933557 0.14994734 0.00000000) 
        (0.37465508 0.14955653 0.00000000) 
        (0.37997337 0.14915171 0.00000000) 
        (0.38529050 0.14873360 0.00000000) 
        (0.39060632 0.14830059 0.00000000) 
        (0.39592094 0.14785383 0.00000000) 
        (0.40123444 0.14739428 0.00000000) 
        (0.40654671 0.14692066 0.00000000) 
        (0.41185780 0.14643352 0.00000000) 
        (0.41716780 0.14593404 0.00000000) 
        (0.42247665 0.14542124 0.00000000) 
        (0.42778432 0.14489514 0.00000000) 
        (0.43309096 0.14435712 0.00000000) 
        (0.43839649 0.14380648 0.00000000) 
        (0.44370087 0.14324273 0.00000000) 
        (0.44900425 0.14266744 0.00000000) 
        (0.45430658 0.14208018 0.00000000) 
        (0.45960777 0.14147998 0.00000000) 
        (0.46490799 0.14086860 0.00000000) 
        (0.47020721 0.14024583 0.00000000) 
        (0.47550531 0.13961028 0.00000000) 
        (0.48080246 0.13896389 0.00000000) 
        (0.48609867 0.13830665 0.00000000) 
        (0.49139377 0.13763677 0.00000000) 
        (0.49668795 0.13695636 0.00000000) 
        (0.50198121 0.13626548 0.00000000) 
        (0.50727340 0.13556233 0.00000000) 
        (0.51256468 0.13484880 0.00000000) 
        (0.51785506 0.13412508 0.00000000) 
        (0.52314442 0.13338958 0.00000000) 
        (0.52843288 0.13264378 0.00000000) 
        (0.53372047 0.13188804 0.00000000) 
        (0.53900706 0.13112097 0.00000000) 
        (0.54429276 0.13034365 0.00000000) 
        (0.54957761 0.12955663 0.00000000) 
        (0.55486151 0.12875870 0.00000000) 
        (0.56014451 0.12795058 0.00000000) 
        (0.56542668 0.12713296 0.00000000) 
        (0.57070794 0.12630481 0.00000000) 
        (0.57598830 0.12546652 0.00000000) 
        (0.58126785 0.12461892 0.00000000) 
        (0.58654651 0.12376114 0.00000000) 
        (0.59182429 0.12289326 0.00000000) 
        (0.59710127 0.12201625 0.00000000) 
        (0.60237738 0.12112936 0.00000000) 
        (0.60765263 0.12023268 0.00000000) 
        (0.61292716 0.11932763 0.00000000) 
        (0.61820051 0.11840921 0.00000000) 
        (0.62347244 0.11747451 0.00000000) 
        (0.62874312 0.11652548 0.00000000) 
        (0.63401251 0.11556178 0.00000000) 
        (0.63928045 0.11458143 0.00000000) 
        (0.64454714 0.11358686 0.00000000) 
        (0.64981259 0.11257808 0.00000000) 
        (0.65507656 0.11155244 0.00000000) 
        (0.66033930 0.11051259 0.00000000) 
        (0.66560079 0.10945861 0.00000000) 
        (0.67086085 0.10838825 0.00000000) 
        (0.67611964 0.10730335 0.00000000) 
        (0.68137720 0.10620438 0.00000000) 
        (0.68663336 0.10508944 0.00000000) 
        (0.69188822 0.10395966 0.00000000) 
        (0.69714186 0.10281586 0.00000000) 
        (0.70239413 0.10165644 0.00000000) 
        (0.70764508 0.10048190 0.00000000) 
        (0.71372530 0.09910431 0.00000000) 
        (0.71975294 0.09771677 0.00000000) 
        (0.72572876 0.09632307 0.00000000) 
        (0.73165296 0.09492045 0.00000000) 
        (0.73752625 0.09351237 0.00000000) 
        (0.74334880 0.09209598 0.00000000) 
        (0.74912138 0.09067512 0.00000000) 
        (0.75484409 0.08924631 0.00000000) 
        (0.76051767 0.08781345 0.00000000) 
        (0.76614234 0.08637426 0.00000000) 
        (0.77171867 0.08493057 0.00000000) 
        (0.77724706 0.08348255 0.00000000) 
        (0.78272782 0.08202918 0.00000000) 
        (0.78816157 0.08057300 0.00000000) 
        (0.79354851 0.07911184 0.00000000) 
        (0.79888919 0.07764751 0.00000000) 
        (0.80418406 0.07618097 0.00000000) 
        (0.80943329 0.07470960 0.00000000) 
        (0.81463750 0.07323636 0.00000000) 
        (0.81979710 0.07176149 0.00000000) 
        (0.82491225 0.07028269 0.00000000) 
        (0.82998355 0.06880249 0.00000000) 
        (0.83501138 0.06732121 0.00000000) 
        (0.83999600 0.06583765 0.00000000) 
        (0.84493782 0.06435234 0.00000000) 
        (0.84983729 0.06286646 0.00000000) 
        (0.85469478 0.06138015 0.00000000) 
        (0.85951053 0.05989206 0.00000000) 
        (0.86428497 0.05840332 0.00000000) 
        (0.86901852 0.05691462 0.00000000) 
        (0.87371152 0.05542609 0.00000000) 
        (0.87836430 0.05393759 0.00000000) 
        (0.88297711 0.05244814 0.00000000) 
        (0.88755042 0.05095931 0.00000000) 
        (0.89208457 0.04947122 0.00000000) 
        (0.89657990 0.04798400 0.00000000) 
        (0.90103675 0.04649776 0.00000000) 
        (0.90545541 0.04501225 0.00000000) 
        (0.90983616 0.04352711 0.00000000) 
        (0.91417943 0.04204337 0.00000000) 
        (0.91848552 0.04056114 0.00000000) 
        (0.92275477 0.03908051 0.00000000) 
        (0.92698748 0.03760160 0.00000000) 
        (0.93118397 0.03612452 0.00000000) 
        (0.93534456 0.03464936 0.00000000) 
        (0.93946956 0.03317624 0.00000000) 
        (0.94355927 0.03170525 0.00000000) 
        (0.94761398 0.03023634 0.00000000) 
        (0.95163398 0.02876946 0.00000000) 
        (0.95561961 0.02730508 0.00000000) 
        (0.95957117 0.02584329 0.00000000) 
        (0.96348893 0.02438420 0.00000000) 
        (0.96737321 0.02292790 0.00000000) 
        (0.97122428 0.02147448 0.00000000) 
        (0.97504244 0.02002404 0.00000000) 
        (0.97882797 0.01857667 0.00000000) 
        (0.98258115 0.01713246 0.00000000) 
        (0.98630227 0.01569149 0.00000000) 
        (0.98999159 0.01425387 0.00000000) 
        (0.99364940 0.01281968 0.00000000) 
        (0.99727596 0.01138901 0.00000000) 
        (1.00087156 0.00996195 0.00000000) 
        ) 
    spline 4 5 ( 
        (0.00293374 0.07719380 0.01000000) 
        (0.00301739 0.07575904 0.01000000) 
        (0.00314996 0.07478461 0.01000000) 
        (0.00330644 0.07398072 0.01000000) 
        (0.00348051 0.07327079 0.01000000) 
        (0.00366963 0.07262126 0.01000000) 
        (0.00387259 0.07201381 0.01000000) 
        (0.00408882 0.07143719 0.01000000) 
        (0.00431812 0.07088392 0.01000000) 
        (0.00456046 0.07034868 0.01000000) 
        (0.00481599 0.06982758 0.01000000) 
        (0.00508494 0.06931762 0.01000000) 
        (0.00536761 0.06881646 0.01000000) 
        (0.00566437 0.06832222 0.01000000) 
        (0.00597565 0.06783336 0.01000000) 
        (0.00630192 0.06734857 0.01000000) 
        (0.00664367 0.06686679 0.01000000) 
        (0.00700147 0.06638707 0.01000000) 
        (0.00737590 0.06590860 0.01000000) 
        (0.00776757 0.06543068 0.01000000) 
        (0.00817714 0.06495269 0.01000000) 
        (0.00860531 0.06447405 0.01000000) 
        (0.00905280 0.06399427 0.01000000) 
        (0.00952444 0.06355951 0.01000000) 
        (0.01001634 0.06311551 0.01000000) 
        (0.01052855 0.06265316 0.01000000) 
        (0.01106193 0.06217172 0.01000000) 
        (0.01161734 0.06167038 0.01000000) 
        (0.01219570 0.06114834 0.01000000) 
        (0.01279795 0.06060472 0.01000000) 
        (0.01342914 0.06008504 0.01000000) 
        (0.01409208 0.05960868 0.01000000) 
        (0.01478240 0.05911263 0.01000000) 
        (0.01550125 0.05859609 0.01000000) 
        (0.01624979 0.05805821 0.01000000) 
        (0.01702926 0.05749810 0.01000000) 
        (0.01784686 0.05698261 0.01000000) 
        (0.01869971 0.05646276 0.01000000) 
        (0.01958781 0.05592143 0.01000000) 
        (0.02051259 0.05535774 0.01000000) 
        (0.02147725 0.05478984 0.01000000) 
        (0.02248626 0.05424998 0.01000000) 
        (0.02353697 0.05368782 0.01000000) 
        (0.02463108 0.05310243 0.01000000) 
        (0.02577293 0.05252189 0.01000000) 
        (0.02696481 0.05194997 0.01000000) 
        (0.02820593 0.05135443 0.01000000) 
        (0.02949929 0.05074533 0.01000000) 
        (0.03084996 0.05015541 0.01000000) 
        (0.03225644 0.04954113 0.01000000) 
        (0.03372244 0.04891777 0.01000000) 
        (0.03525203 0.04830311 0.01000000) 
        (0.03684481 0.04766306 0.01000000) 
        (0.03850651 0.04703214 0.01000000) 
        (0.04023787 0.04638674 0.01000000) 
        (0.04204244 0.04573391 0.01000000) 
        (0.04392376 0.04507913 0.01000000) 
        (0.04588397 0.04441077 0.01000000) 
        (0.04792766 0.04374320 0.01000000) 
        (0.05005710 0.04306316 0.01000000) 
        (0.05227668 0.04237978 0.01000000) 
        (0.05458990 0.04169038 0.01000000) 
        (0.05700008 0.04098845 0.01000000) 
        (0.05951277 0.04029103 0.01000000) 
        (0.06213061 0.03958025 0.01000000) 
        (0.06485863 0.03886321 0.01000000) 
        (0.06770200 0.03814673 0.01000000) 
        (0.07066463 0.03742116 0.01000000) 
        (0.07375166 0.03668848 0.01000000) 
        (0.07696851 0.03595171 0.01000000) 
        (0.08032088 0.03521440 0.01000000) 
        (0.08381394 0.03447175 0.01000000) 
        (0.08745363 0.03372481 0.01000000) 
        (0.09124607 0.03297438 0.01000000) 
        (0.09519766 0.03222115 0.01000000) 
        (0.09931503 0.03146563 0.01000000) 
        (0.10451813 0.03054938 0.01000000) 
        (0.10972507 0.02967698 0.01000000) 
        (0.11493541 0.02884344 0.01000000) 
        (0.12014873 0.02804404 0.01000000) 
        (0.12536511 0.02727956 0.01000000) 
        (0.13058441 0.02654852 0.01000000) 
        (0.13580622 0.02584601 0.01000000) 
        (0.14103052 0.02517209 0.01000000) 
        (0.14625737 0.02452734 0.01000000) 
        (0.15148635 0.02390690 0.01000000) 
        (0.15671742 0.02331037 0.01000000) 
        (0.16195075 0.02273956 0.01000000) 
        (0.16718591 0.02218976 0.01000000) 
        (0.17242285 0.02166030 0.01000000) 
        (0.17766179 0.02115368 0.01000000) 
        (0.18290233 0.02066543 0.01000000) 
        (0.18814443 0.02019486 0.01000000) 
        (0.19338828 0.01974440 0.01000000) 
        (0.19863356 0.01931027 0.01000000) 
        (0.20388021 0.01889177 0.01000000) 
        (0.20912840 0.01849086 0.01000000) 
        (0.21437787 0.01810468 0.01000000) 
        (0.21962856 0.01773238 0.01000000) 
        (0.22488061 0.01737560 0.01000000) 
        (0.23013382 0.01703210 0.01000000) 
        (0.23538811 0.01670099 0.01000000) 
        (0.24064361 0.01638366 0.01000000) 
        (0.24590016 0.01607833 0.01000000) 
        (0.25115768 0.01578410 0.01000000) 
        (0.25641628 0.01550214 0.01000000) 
        (0.26167582 0.01523103 0.01000000) 
        (0.26693623 0.01496988 0.01000000) 
        (0.27219761 0.01471971 0.01000000) 
        (0.27745984 0.01447934 0.01000000) 
        (0.28272286 0.01424793 0.01000000) 
        (0.28798674 0.01402635 0.01000000) 
        (0.29325139 0.01381363 0.01000000) 
        (0.29851674 0.01360897 0.01000000) 
        (0.30385309 0.01341059 0.01000000) 
        (0.30919016 0.01322037 0.01000000) 
        (0.31452787 0.01303754 0.01000000) 
        (0.31986631 0.01286306 0.01000000) 
        (0.32520537 0.01269571 0.01000000) 
        (0.33054502 0.01253499 0.01000000) 
        (0.33588534 0.01238196 0.01000000) 
        (0.34122619 0.01223512 0.01000000) 
        (0.34656759 0.01209438 0.01000000) 
        (0.35190957 0.01196041 0.01000000) 
        (0.35725204 0.01183196 0.01000000) 
        (0.36259500 0.01170912 0.01000000) 
        (0.36793847 0.01159217 0.01000000) 
        (0.37328238 0.01148015 0.01000000) 
        (0.37862673 0.01137327 0.01000000) 
        (0.38397154 0.01127151 0.01000000) 
        (0.38931672 0.01117412 0.01000000) 
        (0.39466232 0.01108143 0.01000000) 
        (0.40000830 0.01099315 0.01000000) 
        (0.40535462 0.01090875 0.01000000) 
        (0.41070132 0.01082862 0.01000000) 
        (0.41604834 0.01075226 0.01000000) 
        (0.42139567 0.01067933 0.01000000) 
        (0.42674333 0.01061024 0.01000000) 
        (0.43209127 0.01054437 0.01000000) 
        (0.43743948 0.01048150 0.01000000) 
        (0.44278798 0.01042207 0.01000000) 
        (0.44813673 0.01036536 0.01000000) 
        (0.45348571 0.01031133 0.01000000) 
        (0.45883494 0.01026020 0.01000000) 
        (0.46418438 0.01021142 0.01000000) 
        (0.46953402 0.01016501 0.01000000) 
        (0.47488388 0.01012103 0.01000000) 
        (0.48023391 0.01007904 0.01000000) 
        (0.48558413 0.01003912 0.01000000) 