/*--------------------------------*- C++ -*----------------------------------*\
| =========                 |                                                 |
| \\      /  F ield         | OpenFOAM: The Open Source CFD Toolbox           |
|  \\    /   O peration     | Version:  5                                     |
|   \\  /    A nd           | Web:      www.OpenFOAM.org                      |
|    \\/     M anipulation  |                                                 |
\*---------------------------------------------------------------------------*/
FoamFile
{
    version     2.0;
    format      ascii;
    class       volVectorField;
    object      U;
}
// * * * * * * * * * * * * * * * * * * * * * * * * * * * * * * * * * * * * * //

dimensions      [0 1 -1 0 0 0 0];

internalField   uniform (30 0.0 0);

boundaryField
{
    inlet
    {
        type            freestream;
        freestreamValue uniform (30 0.0 0);
    }

    outlet
    {
        type            freestream;
        freestreamValue uniform (30 0.0 0);
    }

    airfoil
    {
        type            noSlip;
    }

    upper
    {
        type            freestream;
        freestreamValue uniform (30 0.0 0);
    }

    lower
    {
        type            freestream;
        freestreamValue uniform (30 0.0 0);
    }

    defaultFaces
    {
        type            empty;
    }
}

// ************************************************************************* //
