/*--------------------------------*- C++ -*----------------------------------*| =========                 |                                                 |
| \      /  F ield         | OpenFOAM: The Open Source CFD Toolbox           |
|  \    /   O peration     | Version:  5                                     |
|   \  /    A nd           | Web:      www.OpenFOAM.org                      |
|    \/     M anipulation  |                                                 |
\*---------------------------------------------------------------------------*/
FoamFile
{
    version     2.0;
    format      ascii;
    class       dictionary;
    object      blockMeshDict;
}
// * * * * * * * * * * * * * * * * * * * * * * * * * * * * * * * * * * * * * //
LsO 0.15529143;
ULcO 2.52955550;
DLcO 2.57955550;
TLcO 3.57955550;

z1  0.0; 
z2  0.1; 
Nup   40;
Nuu   20;
Ncowl 7;
Naxis 70;
Ninf  100;
Nramp 100;
Ndown 50;

convertToMeters 1;

vertices
(
	(0.0	0.0		$z1) // Point 0
	(2.0	0.0		$z1) // Point 1
	($DLcO	$LsO	$z1) // Point 2
	($TLcO	0.1		$z1) // Point 3
	(0.0	0.8		$z1) // Point 4
	(2.0	0.8		$z1) // Point 5
	($DLcO	0.8		$z1) // Point 6
	($TLcO	0.8		$z1) // Point 7
	(0.0	0.85	$z1) // Point 8
	(2.0	0.85	$z1) // Point 9
	($ULcO	0.85	$z1) // Point 10
	($TLcO	0.85	$z1) // Point 11
	(0.0	1.85	$z1) // Point 12
	(2.0	1.85	$z1) // Point 13
	($ULcO	1.85	$z1) // Point 14
	($TLcO	1.85	$z1) // Point 15

	(0.0	0.0		$z2) // Point 16
	(2.0	0.0		$z2) // Point 17
	($DLcO	$LsO	$z2) // Point 18
	($TLcO	0.1		$z2) // Point 19
	(0.0	0.8		$z2) // Point 20
	(2.0	0.8		$z2) // Point 21
	($DLcO	0.8		$z2) // Point 22
	($TLcO	0.8		$z2) // Point 23
	(0.0	0.85	$z2) // Point 24
	(2.0	0.85	$z2) // Point 25
	($ULcO	0.85	$z2) // Point 26
	($TLcO	0.85	$z2) // Point 27
	(0.0	1.85	$z2) // Point 28
	(2.0	1.85	$z2) // Point 29
	($ULcO	1.85	$z2) // Point 30
	($TLcO	1.85	$z2) // Point 31
);

blocks
(
	//block 0
    hex (0 1 5 4 16 17 21 20) ($Ninf $Naxis 1) simpleGrading
    (
    	0.1
    	(
    		(0.10		0.15	1)
    		(0.40		0.35	3.2)
    		(0.40		0.35	0.3125)
    		(0.10		0.15	1)
		)   	
    	1
    )    
    //block 1
    hex (1 2 6 5 17 18 22 21) ($Nramp $Naxis 1) simpleGrading
    (
    	1
    	(
    		(0.10		0.15	1)
    		(0.40		0.35	3.2)
    		(0.40		0.35	0.3125)
    		(0.10		0.15	1)
		)   	
    	1
    )
    //block 2
    hex (2 3 7 6 18 19 23 22) ($Ndown $Naxis 1) simpleGrading 		
    (
    	10
    	(
    		(0.10		0.15	1)
    		(0.40		0.35	3.2)
    		(0.40		0.35	0.3125)
    		(0.10		0.15	1)
		)   	
    	1
    )
    //block 3
    hex (4 5 9 8 20 21 25 24) ($Ninf $Ncowl 1) simpleGrading (0.1 1 1)
    //block 4
    hex (5 6 10 9 21 22 26 25) ($Nramp $Ncowl 1) simpleGrading (1 1 1)
    //block 5
    hex (8 9 13 12 24 25 29 28) ($Ninf $Nup 1) simpleGrading (0.1 15 1)
    //block 6
    hex (9 10 14 13 25 26 30 29) ($Nramp $Nup 1) simpleGrading (1 15 1)
    //block 7
    hex (10 11 15 14 26 27 31 30) ($Nuu $Nup 1) simpleGrading (10 15 1)
);

edges
(    spline 2 3 ( 
        (2.57955550 0.15529143 0.0) 
        (2.58965651 0.15495407 0.0) 
        (2.59975752 0.15461220 0.0) 
        (2.60985853 0.15426582 0.0) 
        (2.61995954 0.15391492 0.0) 
        (2.63006055 0.15355952 0.0) 
        (2.64016156 0.15319959 0.0) 
        (2.65026257 0.15283516 0.0) 
        (2.66036358 0.15246621 0.0) 
        (2.67046459 0.15209275 0.0) 
        (2.68056560 0.15171478 0.0) 
        (2.69066661 0.15133229 0.0) 
        (2.70076762 0.15094529 0.0) 
        (2.71086863 0.15055377 0.0) 
        (2.72096964 0.15015775 0.0) 
        (2.73107065 0.14975721 0.0) 
        (2.74117166 0.14935215 0.0) 
        (2.75127267 0.14894259 0.0) 
        (2.76137368 0.14852851 0.0) 
        (2.77147469 0.14810992 0.0) 
        (2.78157570 0.14768681 0.0) 
        (2.79167671 0.14725919 0.0) 
        (2.80177772 0.14682706 0.0) 
        (2.81187873 0.14639042 0.0) 
        (2.82197974 0.14594926 0.0) 
        (2.83208075 0.14550359 0.0) 
        (2.84218176 0.14505340 0.0) 
        (2.85228277 0.14459870 0.0) 
        (2.86238378 0.14413949 0.0) 
        (2.87248479 0.14367577 0.0) 
        (2.88258580 0.14320753 0.0) 
        (2.89268681 0.14273478 0.0) 
        (2.90278782 0.14225752 0.0) 
        (2.91288883 0.14177574 0.0) 
        (2.92298984 0.14128946 0.0) 
        (2.93309085 0.14079865 0.0) 
        (2.94319186 0.14030334 0.0) 
        (2.95329287 0.13980351 0.0) 
        (2.96339388 0.13929917 0.0) 
        (2.97349489 0.13879031 0.0) 
        (2.98359590 0.13827694 0.0) 
        (2.99369691 0.13775906 0.0) 
        (3.00379792 0.13723667 0.0) 
        (3.01389893 0.13670976 0.0) 
        (3.02399994 0.13617834 0.0) 
        (3.03410095 0.13564241 0.0) 
        (3.04420196 0.13510196 0.0) 
        (3.05430297 0.13455700 0.0) 
        (3.06440398 0.13400753 0.0) 
        (3.07450499 0.13345354 0.0) 
        (3.08460600 0.13289504 0.0) 
        (3.09470701 0.13233203 0.0) 
        (3.10480802 0.13176450 0.0) 
        (3.11490903 0.13119247 0.0) 
        (3.12501004 0.13061591 0.0) 
        (3.13511105 0.13003485 0.0) 
        (3.14521206 0.12944927 0.0) 
        (3.15531307 0.12885918 0.0) 
        (3.16541408 0.12826458 0.0) 
        (3.17551509 0.12766546 0.0) 
        (3.18561610 0.12706183 0.0) 
        (3.19571711 0.12645368 0.0) 
        (3.20581812 0.12584103 0.0) 
        (3.21591913 0.12522386 0.0) 
        (3.22602014 0.12460217 0.0) 
        (3.23612115 0.12397598 0.0) 
        (3.24622216 0.12334527 0.0) 
        (3.25632317 0.12271005 0.0) 
        (3.26642418 0.12207031 0.0) 
        (3.27652519 0.12142606 0.0) 
        (3.28662620 0.12077730 0.0) 
        (3.29672721 0.12012403 0.0) 
        (3.30682822 0.11946624 0.0) 
        (3.31692923 0.11880394 0.0) 
        (3.32703024 0.11813712 0.0) 
        (3.33713125 0.11746580 0.0) 
        (3.34723226 0.11678995 0.0) 
        (3.35733327 0.11610960 0.0) 
        (3.36743428 0.11542473 0.0) 
        (3.37753529 0.11473535 0.0) 
        (3.38763630 0.11404146 0.0) 
        (3.39773731 0.11334306 0.0) 
        (3.40783832 0.11264014 0.0) 
        (3.41793933 0.11193270 0.0) 
        (3.42804034 0.11122076 0.0) 
        (3.43814135 0.11050430 0.0) 
        (3.44824236 0.10978333 0.0) 
        (3.45834337 0.10905784 0.0) 
        (3.46844438 0.10832784 0.0) 
        (3.47854539 0.10759333 0.0) 
        (3.48864640 0.10685431 0.0) 
        (3.49874741 0.10611077 0.0) 
        (3.50884843 0.10536272 0.0) 
        (3.51894944 0.10461016 0.0) 
        (3.52905045 0.10385308 0.0) 
        (3.53915146 0.10309149 0.0) 
        (3.54925247 0.10232539 0.0) 
        (3.55935348 0.10155477 0.0) 
        (3.56945449 0.10077964 0.0) 
        (3.57955550 0.10000000 0.0) 
        ) 
    spline 18 19 ( 
        (2.57955550 0.15529143 0.1) 
        (2.58965651 0.15495407 0.1) 
        (2.59975752 0.15461220 0.1) 
        (2.60985853 0.15426582 0.1) 
        (2.61995954 0.15391492 0.1) 
        (2.63006055 0.15355952 0.1) 
        (2.64016156 0.15319959 0.1) 
        (2.65026257 0.15283516 0.1) 
        (2.66036358 0.15246621 0.1) 
        (2.67046459 0.15209275 0.1) 
        (2.68056560 0.15171478 0.1) 
        (2.69066661 0.15133229 0.1) 
        (2.70076762 0.15094529 0.1) 
        (2.71086863 0.15055377 0.1) 
        (2.72096964 0.15015775 0.1) 
        (2.73107065 0.14975721 0.1) 
        (2.74117166 0.14935215 0.1) 
        (2.75127267 0.14894259 0.1) 
        (2.76137368 0.14852851 0.1) 
        (2.77147469 0.14810992 0.1) 
        (2.78157570 0.14768681 0.1) 
        (2.79167671 0.14725919 0.1) 
        (2.80177772 0.14682706 0.1) 
        (2.81187873 0.14639042 0.1) 
        (2.82197974 0.14594926 0.1) 
        (2.83208075 0.14550359 0.1) 
        (2.84218176 0.14505340 0.1) 
        (2.85228277 0.14459870 0.1) 
        (2.86238378 0.14413949 0.1) 
        (2.87248479 0.14367577 0.1) 
        (2.88258580 0.14320753 0.1) 
        (2.89268681 0.14273478 0.1) 
        (2.90278782 0.14225752 0.1) 
        (2.91288883 0.14177574 0.1) 
        (2.92298984 0.14128946 0.1) 
        (2.93309085 0.14079865 0.1) 
        (2.94319186 0.14030334 0.1) 
        (2.95329287 0.13980351 0.1) 
        (2.96339388 0.13929917 0.1) 
        (2.97349489 0.13879031 0.1) 
        (2.98359590 0.13827694 0.1) 
        (2.99369691 0.13775906 0.1) 
        (3.00379792 0.13723667 0.1) 
        (3.01389893 0.13670976 0.1) 
        (3.02399994 0.13617834 0.1) 
        (3.03410095 0.13564241 0.1) 
        (3.04420196 0.13510196 0.1) 
        (3.05430297 0.13455700 0.1) 
        (3.06440398 0.13400753 0.1) 
        (3.07450499 0.13345354 0.1) 
        (3.08460600 0.13289504 0.1) 
        (3.09470701 0.13233203 0.1) 
        (3.10480802 0.13176450 0.1) 
        (3.11490903 0.13119247 0.1) 
        (3.12501004 0.13061591 0.1) 
        (3.13511105 0.13003485 0.1) 
        (3.14521206 0.12944927 0.1) 
        (3.15531307 0.12885918 0.1) 
        (3.16541408 0.12826458 0.1) 
        (3.17551509 0.12766546 0.1) 
        (3.18561610 0.12706183 0.1) 
        (3.19571711 0.12645368 0.1) 
        (3.20581812 0.12584103 0.1) 
        (3.21591913 0.12522386 0.1) 
        (3.22602014 0.12460217 0.1) 
        (3.23612115 0.12397598 0.1) 
        (3.24622216 0.12334527 0.1) 
        (3.25632317 0.12271005 0.1) 
        (3.26642418 0.12207031 0.1) 
        (3.27652519 0.12142606 0.1) 
        (3.28662620 0.12077730 0.1) 
        (3.29672721 0.12012403 0.1) 
        (3.30682822 0.11946624 0.1) 
        (3.31692923 0.11880394 0.1) 
        (3.32703024 0.11813712 0.1) 
        (3.33713125 0.11746580 0.1) 
        (3.34723226 0.11678995 0.1) 
        (3.35733327 0.11610960 0.1) 
        (3.36743428 0.11542473 0.1) 
        (3.37753529 0.11473535 0.1) 
        (3.38763630 0.11404146 0.1) 
        (3.39773731 0.11334306 0.1) 
        (3.40783832 0.11264014 0.1) 
        (3.41793933 0.11193270 0.1) 
        (3.42804034 0.11122076 0.1) 
        (3.43814135 0.11050430 0.1) 
        (3.44824236 0.10978333 0.1) 
        (3.45834337 0.10905784 0.1) 
        (3.46844438 0.10832784 0.1) 
        (3.47854539 0.10759333 0.1) 
        (3.48864640 0.10685431 0.1) 
        (3.49874741 0.10611077 0.1) 
        (3.50884843 0.10536272 0.1) 
        (3.51894944 0.10461016 0.1) 
        (3.52905045 0.10385308 0.1) 
        (3.53915146 0.10309149 0.1) 
        (3.54925247 0.10232539 0.1) 
        (3.55935348 0.10155477 0.1) 
        (3.56945449 0.10077964 0.1) 
        (3.57955550 0.10000000 0.1) 
        ) 

);

boundary
(
	inlet
    {
        type patch;
        faces
        (
            (12 28 24 8)
            (8 24 20 4)
            (4 20 16 0)
        );
    }   

	outlet
    {
        type patch;
        faces
        (
            (31 15 11 27)
        );
    }   

	compressor
    {
        type patch;
        faces
        (
            (23 7 3 19)
        );
    }   

	upper
    {
        type patch;
        faces
        (
            (28 12 13 29)
            (29 13 14 30)
            (30 14 15 31)
        );
    }   

	lower
    {
        type patch;
        faces
        (
            (0 16 17 1)
        );
    }   
    
	cowl
    {
        type patch;
        faces
        (
            (10 26 27 11)
            (26 10 6 22)
            (22 6 7 23)
        );
    }   

	axis
    {
        type patch;
        faces
        (
            (18 2 1 17)
            (19 3 2 18)
        );
    }   
);

// ************************************************************************* //
