/*--------------------------------*- C++ -*----------------------------------*\
| =========                 |                                                 |
| \\      /  F ield         | OpenFOAM: The Open Source CFD Toolbox           |
|  \\    /   O peration     | Version:  5.0                                   |
|   \\  /    A nd           | Web:      www.OpenFOAM.org                      |
|    \\/     M anipulation  |                                                 |
\*---------------------------------------------------------------------------*/
FoamFile
{
    version     2.0;
    format      ascii;
    class       polyBoundaryMesh;
    location    "constant/polyMesh";
    object      boundary;
}
// * * * * * * * * * * * * * * * * * * * * * * * * * * * * * * * * * * * * * //

5
(
    inlet
    {
        type            patch;
        nFaces          80;
        startFace       44420;
    }
    outlet
    {
        type            patch;
        nFaces          80;
        startFace       44500;
    }
    upper
    {
        type            patch;
        nFaces          260;
        startFace       44580;
    }
    wall
    {
        type            patch;
        nFaces          340;
        startFace       44840;
    }
    frontAndBack
    {
        type            empty;
        inGroups        1(empty);
        nFaces          44800;
        startFace       45180;
    }
)

// ************************************************************************* //
