/*--------------------------------*- C++ -*----------------------------------*\
| =========                 |                                                 |
| \\      /  F ield         | OpenFOAM: The Open Source CFD Toolbox           |
|  \\    /   O peration     | Version:  5.x                                   |
|   \\  /    A nd           | Web:      www.OpenFOAM.org                      |
|    \\/     M anipulation  |                                                 |
\*---------------------------------------------------------------------------*/
FoamFile
{
    version     2.0;
    format      ascii;
    class       polyBoundaryMesh;
    location    "constant/polyMesh";
    object      boundary;
}
// * * * * * * * * * * * * * * * * * * * * * * * * * * * * * * * * * * * * * //

7
(
    inlet
    {
        type            patch;
        nFaces          43;
        startFace       20282;
    }
    outlet
    {
        type            patch;
        nFaces          43;
        startFace       20325;
    }
    upper
    {
        type            patch;
        nFaces          210;
        startFace       20368;
    }
    lowerBefore
    {
        type            patch;
        nFaces          35;
        startFace       20578;
    }
    cavity
    {
        type            patch;
        nFaces          100;
        startFace       20613;
    }
    lowerAfter
    {
        type            patch;
        nFaces          125;
        startFace       20713;
    }
    frontAndBack
    {
        type            empty;
        inGroups        1(empty);
        nFaces          20560;
        startFace       20838;
    }
)

// ************************************************************************* //
