/*--------------------------------*- C++ -*----------------------------------*\
| =========                 |                                                 |
| \\      /  F ield         | OpenFOAM: The Open Source CFD Toolbox           |
|  \\    /   O peration     | Version:  5.x                                   |
|   \\  /    A nd           | Web:      www.OpenFOAM.org                      |
|    \\/     M anipulation  |                                                 |
\*---------------------------------------------------------------------------*/
FoamFile
{
    version     2.0;
    format      ascii;
    class       polyBoundaryMesh;
    location    "constant/polyMesh";
    object      boundary;
}
// * * * * * * * * * * * * * * * * * * * * * * * * * * * * * * * * * * * * * //

5
(
    inlet
    {
        type            patch;
        nFaces          80;
        startFace       46000;
    }
    outlet
    {
        type            patch;
        nFaces          80;
        startFace       46080;
    }
    upper
    {
        type            patch;
        nFaces          260;
        startFace       46160;
    }
    wall
    {
        type            patch;
        nFaces          380;
        startFace       46420;
    }
    frontAndBack
    {
        type            empty;
        inGroups        1(empty);
        nFaces          46400;
        startFace       46800;
    }
)

// ************************************************************************* //
