/*--------------------------------*- C++ -*----------------------------------*\
| =========                 |                                                 |
| \\      /  F ield         | OpenFOAM: The Open Source CFD Toolbox           |
|  \\    /   O peration     | Version:  5.x                                   |
|   \\  /    A nd           | Web:      www.OpenFOAM.org                      |
|    \\/     M anipulation  |                                                 |
\*---------------------------------------------------------------------------*/
FoamFile
{
    version     2.0;
    format      ascii;
    class       polyBoundaryMesh;
    location    "constant/polyMesh";
    object      boundary;
}
// * * * * * * * * * * * * * * * * * * * * * * * * * * * * * * * * * * * * * //

7
(
    inlet
    {
        type            patch;
        nFaces          24;
        startFace       3889;
    }
    outlet
    {
        type            patch;
        nFaces          32;
        startFace       3913;
    }
    wall
    {
        type            wall;
        inGroups        1(wall);
        nFaces          26;
        startFace       3945;
    }
    lower
    {
        type            patch;
        nFaces          61;
        startFace       3971;
    }
    upper
    {
        type            patch;
        nFaces          61;
        startFace       4032;
    }
    AFC
    {
        type            patch;
        nFaces          2;
        startFace       4093;
    }
    defaultFaces
    {
        type            empty;
        inGroups        1(empty);
        nFaces          3992;
        startFace       4095;
    }
)

// ************************************************************************* //
