/*--------------------------------*- C++ -*----------------------------------*\
| =========                 |                                                 |
| \\      /  F ield         | OpenFOAM: The Open Source CFD Toolbox           |
|  \\    /   O peration     | Version:  5.x                                   |
|   \\  /    A nd           | Web:      www.OpenFOAM.org                      |
|    \\/     M anipulation  |                                                 |
\*---------------------------------------------------------------------------*/
FoamFile
{
    version     2.0;
    format      ascii;
    class       polyBoundaryMesh;
    location    "constant/polyMesh";
    object      boundary;
}
// * * * * * * * * * * * * * * * * * * * * * * * * * * * * * * * * * * * * * //

6
(
    inlet
    {
        type            patch;
        nFaces          51;
        startFace       13550;
    }
    outlet
    {
        type            patch;
        nFaces          51;
        startFace       13601;
    }
    wall
    {
        type            wall;
        inGroups        1(wall);
        nFaces          44;
        startFace       13652;
    }
    lower
    {
        type            patch;
        nFaces          125;
        startFace       13696;
    }
    upper
    {
        type            patch;
        nFaces          125;
        startFace       13821;
    }
    defaultFaces
    {
        type            empty;
        inGroups        1(empty);
        nFaces          13748;
        startFace       13946;
    }
)

// ************************************************************************* //
