/*--------------------------------*- C++ -*----------------------------------*\
| =========                 |                                                 |
| \\      /  F ield         | OpenFOAM: The Open Source CFD Toolbox           |
|  \\    /   O peration     | Version:  5.0                                   |
|   \\  /    A nd           | Web:      www.OpenFOAM.org                      |
|    \\/     M anipulation  |                                                 |
\*---------------------------------------------------------------------------*/
FoamFile
{
    version     2.0;
    format      ascii;
    class       polyBoundaryMesh;
    location    "constant/polyMesh";
    object      boundary;
}
// * * * * * * * * * * * * * * * * * * * * * * * * * * * * * * * * * * * * * //

6
(
    inlet
    {
        type            patch;
        nFaces          30;
        startFace       12570;
    }
    outlet
    {
        type            patch;
        nFaces          30;
        startFace       12600;
    }
    wall
    {
        type            wall;
        inGroups        1(wall);
        nFaces          80;
        startFace       12630;
    }
    upper
    {
        type            patch;
        nFaces          160;
        startFace       12710;
    }
    lower
    {
        type            patch;
        nFaces          160;
        startFace       12870;
    }
    defaultFaces
    {
        type            empty;
        inGroups        1(empty);
        nFaces          12800;
        startFace       13030;
    }
)

// ************************************************************************* //
