/*--------------------------------*- C++ -*----------------------------------*\
| =========                 |                                                 |
| \\      /  F ield         | OpenFOAM: The Open Source CFD Toolbox           |
|  \\    /   O peration     | Version:  5.0                                   |
|   \\  /    A nd           | Web:      www.OpenFOAM.org                      |
|    \\/     M anipulation  |                                                 |
\*---------------------------------------------------------------------------*/
FoamFile
{
    version     2.0;
    format      ascii;
    class       polyBoundaryMesh;
    location    "constant/polyMesh";
    object      boundary;
}
// * * * * * * * * * * * * * * * * * * * * * * * * * * * * * * * * * * * * * //

6
(
    upperInlet
    {
        type            patch;
        nFaces          72;
        startFace       28035;
    }
    outlet
    {
        type            patch;
        nFaces          72;
        startFace       28107;
    }
    wall
    {
        type            wall;
        inGroups        1(wall);
        nFaces          60;
        startFace       28179;
    }
    upper
    {
        type            patch;
        nFaces          183;
        startFace       28239;
    }
    lower
    {
        type            patch;
        nFaces          183;
        startFace       28422;
    }
    defaultFaces
    {
        type            empty;
        inGroups        1(empty);
        nFaces          28320;
        startFace       28605;
    }
)

// ************************************************************************* //
