/*--------------------------------*- C++ -*----------------------------------*\ 
| =========                 |                                                 | 
| \      /  F ield         | OpenFOAM: The Open Source CFD Toolbox           | 
|  \    /   O peration     | Version:  5                                     | 
|   \  /    A nd           | Web:      www.OpenFOAM.org                      | 
|    \/     M anipulation  |                                                 | 
\*---------------------------------------------------------------------------*/ 

FoamFile 
{ 
    version     2.0; 
    format      ascii; 
    class       dictionary; 
    object      blockMeshDict;; 
} 
// * * * * * * * * * * * * * * * * * * * * * * * * * * * * * * * * * * * * * // 

convertToMeters 1; 

vertices 
( 
    (0.00 -0.01 0.00) 
    (1.00 -0.01 0.00) 
    (1.00 0.01 0.00) 
    (0.00 0.01 0.00) 
    (0.00 -0.01 0.01) 
    (1.00 -0.01 0.01) 
    (1.00 0.01 0.01) 
    (0.00 0.01 0.01) 
); 

blocks 
( 
    hex (0 1 2 3 4 5 6 7) (250 10 1) simpleGrading 
    ( 
     ( 
     (0.100 0.200 8.000) 
     (0.200 0.200 1.000) 
     (0.400 0.350 1.000) 
     (0.300 0.250 0.600) 
     ) 
    1 
    1 
    ) 
); 

edges 
( 
    spline 0 1 ( 
        (0.00000000 -0.01000000 0.00000000) 
        (0.00059006 -0.01296978 0.00000000) 
        (0.00120571 -0.01466873 0.00000000) 
        (0.00184804 -0.01601537 0.00000000) 
        (0.00251822 -0.01717793 0.00000000) 
        (0.00321745 -0.01822445 0.00000000) 
        (0.00394700 -0.01919040 0.00000000) 
        (0.00470817 -0.02009696 0.00000000) 
        (0.00550234 -0.02095922 0.00000000) 
        (0.00633093 -0.02179016 0.00000000) 
        (0.00719545 -0.02259153 0.00000000) 
        (0.00809745 -0.02336495 0.00000000) 
        (0.00903854 -0.02411356 0.00000000) 
        (0.01002044 -0.02484238 0.00000000) 
        (0.01104490 -0.02555853 0.00000000) 
        (0.01211377 -0.02626652 0.00000000) 
        (0.01322898 -0.02696615 0.00000000) 
        (0.01439253 -0.02765733 0.00000000) 
        (0.01560652 -0.02834052 0.00000000) 
        (0.01687315 -0.02901668 0.00000000) 
        (0.01819468 -0.02968628 0.00000000) 
        (0.01957350 -0.03034968 0.00000000) 
        (0.02101209 -0.03100783 0.00000000) 
        (0.02251305 -0.03166209 0.00000000) 
        (0.02407908 -0.03231267 0.00000000) 
        (0.02571299 -0.03295948 0.00000000) 
        (0.02741774 -0.03360282 0.00000000) 
        (0.02919639 -0.03424278 0.00000000) 
        (0.03105215 -0.03487932 0.00000000) 
        (0.03298835 -0.03551273 0.00000000) 
        (0.03500849 -0.03614294 0.00000000) 
        (0.03711621 -0.03676982 0.00000000) 
        (0.03931529 -0.03739333 0.00000000) 
        (0.04160971 -0.03801321 0.00000000) 
        (0.04400360 -0.03862934 0.00000000) 
        (0.04650126 -0.03924139 0.00000000) 
        (0.04910720 -0.03984910 0.00000000) 
        (0.05182611 -0.04045208 0.00000000) 
        (0.05466288 -0.04104995 0.00000000) 
        (0.05762263 -0.04164224 0.00000000) 
        (0.06071069 -0.04222847 0.00000000) 
        (0.06393262 -0.04280806 0.00000000) 
        (0.06729423 -0.04338041 0.00000000) 
        (0.07080156 -0.04394488 0.00000000) 
        (0.07446094 -0.04450073 0.00000000) 
        (0.07827895 -0.04504721 0.00000000) 
        (0.08226248 -0.04558349 0.00000000) 
        (0.08641870 -0.04610869 0.00000000) 
        (0.09075510 -0.04662185 0.00000000) 
        (0.09527948 -0.04712198 0.00000000) 
        (0.10000000 -0.04760800 0.00000000) 
        (0.10400000 -0.04799306 0.00000000) 
        (0.10800000 -0.04835501 0.00000000) 
        (0.11200000 -0.04869510 0.00000000) 
        (0.11600000 -0.04901445 0.00000000) 
        (0.12000000 -0.04931412 0.00000000) 
        (0.12400000 -0.04959507 0.00000000) 
        (0.12800000 -0.04985819 0.00000000) 
        (0.13200000 -0.05010431 0.00000000) 
        (0.13600000 -0.05033420 0.00000000) 
        (0.14000000 -0.05054857 0.00000000) 
        (0.14400000 -0.05074809 0.00000000) 
        (0.14800000 -0.05093339 0.00000000) 
        (0.15200000 -0.05110505 0.00000000) 
        (0.15600000 -0.05126363 0.00000000) 
        (0.16000000 -0.05140966 0.00000000) 
        (0.16400000 -0.05154362 0.00000000) 
        (0.16800000 -0.05166597 0.00000000) 
        (0.17200000 -0.05177716 0.00000000) 
        (0.17600000 -0.05187761 0.00000000) 
        (0.18000000 -0.05196771 0.00000000) 
        (0.18400000 -0.05204785 0.00000000) 
        (0.18800000 -0.05211837 0.00000000) 
        (0.19200000 -0.05217964 0.00000000) 
        (0.19600000 -0.05223196 0.00000000) 
        (0.20000000 -0.05227566 0.00000000) 
        (0.20400000 -0.05231104 0.00000000) 
        (0.20800000 -0.05233839 0.00000000) 
        (0.21200000 -0.05235797 0.00000000) 
        (0.21600000 -0.05237007 0.00000000) 
        (0.22000000 -0.05237493 0.00000000) 
        (0.22400000 -0.05237279 0.00000000) 
        (0.22800000 -0.05236391 0.00000000) 
        (0.23200000 -0.05234849 0.00000000) 
        (0.23600000 -0.05232677 0.00000000) 
        (0.24000000 -0.05229896 0.00000000) 
        (0.24400000 -0.05226526 0.00000000) 
        (0.24800000 -0.05222586 0.00000000) 
        (0.25200000 -0.05218097 0.00000000) 
        (0.25600000 -0.05213077 0.00000000) 
        (0.26000000 -0.05207544 0.00000000) 
        (0.26400000 -0.05201515 0.00000000) 
        (0.26800000 -0.05195007 0.00000000) 
        (0.27200000 -0.05188037 0.00000000) 
        (0.27600000 -0.05180620 0.00000000) 
        (0.28000000 -0.05172773 0.00000000) 
        (0.28400000 -0.05164510 0.00000000) 
        (0.28800000 -0.05155846 0.00000000) 
        (0.29200000 -0.05146796 0.00000000) 
        (0.29600000 -0.05137372 0.00000000) 
        (0.30000000 -0.05127589 0.00000000) 
        (0.30454545 -0.05116053 0.00000000) 
        (0.30909091 -0.05104089 0.00000000) 
        (0.31363636 -0.05091715 0.00000000) 
        (0.31818182 -0.05078948 0.00000000) 
        (0.32272727 -0.05065807 0.00000000) 
        (0.32727273 -0.05052308 0.00000000) 
        (0.33181818 -0.05038467 0.00000000) 
        (0.33636364 -0.05024301 0.00000000) 
        (0.34090909 -0.05009824 0.00000000) 
        (0.34545455 -0.04995052 0.00000000) 
        (0.35000000 -0.04980000 0.00000000) 
        (0.35454545 -0.04964682 0.00000000) 
        (0.35909091 -0.04949112 0.00000000) 
        (0.36363636 -0.04933303 0.00000000) 
        (0.36818182 -0.04917269 0.00000000) 
        (0.37272727 -0.04901024 0.00000000) 
        (0.37727273 -0.04884579 0.00000000) 
        (0.38181818 -0.04867947 0.00000000) 
        (0.38636364 -0.04851139 0.00000000) 
        (0.39090909 -0.04834170 0.00000000) 
        (0.39545455 -0.04817045 0.00000000) 
        (0.40000000 -0.04799790 0.00000000) 
        (0.40454545 -0.04782393 0.00000000) 
        (0.40909091 -0.04764597 0.00000000) 
        (0.41363636 -0.04746409 0.00000000) 
        (0.41818182 -0.04727840 0.00000000) 
        (0.42272727 -0.04708897 0.00000000) 
        (0.42727273 -0.04689592 0.00000000) 
        (0.43181818 -0.04669932 0.00000000) 
        (0.43636364 -0.04649928 0.00000000) 
        (0.44090909 -0.04629587 0.00000000) 
        (0.44545455 -0.04608919 0.00000000) 
        (0.45000000 -0.04587933 0.00000000) 
        (0.45454545 -0.04566635 0.00000000) 
        (0.45909091 -0.04545035 0.00000000) 
        (0.46363636 -0.04523141 0.00000000) 
        (0.46818182 -0.04500959 0.00000000) 
        (0.47272727 -0.04478498 0.00000000) 
        (0.47727273 -0.04455765 0.00000000) 
        (0.48181818 -0.04432768 0.00000000) 
        (0.48636364 -0.04409512 0.00000000) 
        (0.49090909 -0.04386006 0.00000000) 
        (0.49545455 -0.04362255 0.00000000) 
        (0.50000000 -0.04338267 0.00000000) 
        (0.50454545 -0.04314048 0.00000000) 
        (0.50909091 -0.04289603 0.00000000) 
        (0.51363636 -0.04264940 0.00000000) 
        (0.51818182 -0.04240065 0.00000000) 
        (0.52272727 -0.04214982 0.00000000) 
        (0.52727273 -0.04189698 0.00000000) 
        (0.53181818 -0.04164219 0.00000000) 
        (0.53636364 -0.04138549 0.00000000) 
        (0.54090909 -0.04112695 0.00000000) 
        (0.54545455 -0.04086660 0.00000000) 
        (0.55000000 -0.04060452 0.00000000) 
        (0.55454545 -0.04034073 0.00000000) 
        (0.55909091 -0.04007529 0.00000000) 
        (0.56363636 -0.03980825 0.00000000) 
        (0.56818182 -0.03953965 0.00000000) 
        (0.57272727 -0.03926954 0.00000000) 
        (0.57727273 -0.03899796 0.00000000) 
        (0.58181818 -0.03872495 0.00000000) 
        (0.58636364 -0.03845056 0.00000000) 
        (0.59090909 -0.03817481 0.00000000) 
        (0.59545455 -0.03789776 0.00000000) 
        (0.60000000 -0.03761943 0.00000000) 
        (0.60454545 -0.03733987 0.00000000) 
        (0.60909091 -0.03705910 0.00000000) 
        (0.61363636 -0.03677717 0.00000000) 
        (0.61818182 -0.03649411 0.00000000) 
        (0.62272727 -0.03620994 0.00000000) 
        (0.62727273 -0.03592471 0.00000000) 
        (0.63181818 -0.03563843 0.00000000) 
        (0.63636364 -0.03535114 0.00000000) 
        (0.64090909 -0.03506287 0.00000000) 
        (0.64545455 -0.03477364 0.00000000) 
        (0.65000000 -0.03448348 0.00000000) 
        (0.65454545 -0.03419241 0.00000000) 
        (0.65909091 -0.03390046 0.00000000) 
        (0.66363636 -0.03360766 0.00000000) 
        (0.66818182 -0.03331401 0.00000000) 
        (0.67272727 -0.03301955 0.00000000) 
        (0.67727273 -0.03272429 0.00000000) 
        (0.68181818 -0.03242825 0.00000000) 
        (0.68636364 -0.03213145 0.00000000) 
        (0.69090909 -0.03183392 0.00000000) 
        (0.69545455 -0.03153565 0.00000000) 
        (0.70000000 -0.03123668 0.00000000) 
        (0.70617715 -0.03082927 0.00000000) 
        (0.71230279 -0.03042403 0.00000000) 
        (0.71837734 -0.03002098 0.00000000) 
        (0.72440124 -0.02962015 0.00000000) 
        (0.73037490 -0.02922157 0.00000000) 
        (0.73629875 -0.02882526 0.00000000) 
        (0.74217319 -0.02843123 0.00000000) 
        (0.74799865 -0.02803949 0.00000000) 
        (0.75377553 -0.02765006 0.00000000) 
        (0.75950423 -0.02726293 0.00000000) 
        (0.76518516 -0.02687812 0.00000000) 
        (0.77081872 -0.02649562 0.00000000) 
        (0.77640529 -0.02611544 0.00000000) 
        (0.78194528 -0.02573756 0.00000000) 
        (0.78743907 -0.02536198 0.00000000) 
        (0.79288705 -0.02498870 0.00000000) 
        (0.79828959 -0.02461771 0.00000000) 
        (0.80364708 -0.02424899 0.00000000) 
        (0.80895989 -0.02388253 0.00000000) 
        (0.81422840 -0.02351833 0.00000000) 
        (0.81945298 -0.02315636 0.00000000) 
        (0.82463398 -0.02279660 0.00000000) 
        (0.82977178 -0.02243906 0.00000000) 
        (0.83486673 -0.02208369 0.00000000) 
        (0.83991920 -0.02173050 0.00000000) 
        (0.84492953 -0.02137945 0.00000000) 
        (0.84989808 -0.02103053 0.00000000) 
        (0.85482520 -0.02068373 0.00000000) 
        (0.85971122 -0.02033901 0.00000000) 
        (0.86455651 -0.01999637 0.00000000) 
        (0.86936138 -0.01965577 0.00000000) 
        (0.87412619 -0.01931720 0.00000000) 
        (0.87885126 -0.01898063 0.00000000) 
        (0.88353693 -0.01864605 0.00000000) 
        (0.88818352 -0.01831344 0.00000000) 
        (0.89279137 -0.01798276 0.00000000) 
        (0.89736079 -0.01765401 0.00000000) 
        (0.90189210 -0.01732716 0.00000000) 
        (0.90638563 -0.01700218 0.00000000) 
        (0.91084168 -0.01667906 0.00000000) 
        (0.91526057 -0.01635778 0.00000000) 
        (0.91964262 -0.01603831 0.00000000) 
        (0.92398812 -0.01572064 0.00000000) 
        (0.92829738 -0.01540473 0.00000000) 
        (0.93257071 -0.01509059 0.00000000) 
        (0.93680840 -0.01477817 0.00000000) 
        (0.94101075 -0.01446747 0.00000000) 
        (0.94517805 -0.01415846 0.00000000) 
        (0.94931061 -0.01385113 0.00000000) 
        (0.95340870 -0.01354545 0.00000000) 
        (0.95747262 -0.01324141 0.00000000) 
        (0.96150265 -0.01293899 0.00000000) 
        (0.96549907 -0.01263817 0.00000000) 
        (0.96946216 -0.01233893 0.00000000) 
        (0.97339220 -0.01204125 0.00000000) 
        (0.97728947 -0.01174513 0.00000000) 
        (0.98115424 -0.01145054 0.00000000) 
        (0.98498679 -0.01115746 0.00000000) 
        (0.98878737 -0.01086588 0.00000000) 
        (0.99255625 -0.01057579 0.00000000) 
        (0.99629371 -0.01028717 0.00000000) 
        (1.00000000 -0.01000000 0.00000000) 
        ) 
    polyLine 3 2 ( 
        (0.00000000 0.01000000 0.00000000) 
        (0.00059006 0.01614655 0.00000000) 
        (0.00120571 0.01792477 0.00000000) 
        (0.00184804 0.01936272 0.00000000) 
        (0.00251822 0.02062543 0.00000000) 
        (0.00321745 0.02178182 0.00000000) 
        (0.00394700 0.02287563 0.00000000) 
        (0.00470817 0.02391519 0.00000000) 
        (0.00550234 0.02490603 0.00000000) 
        (0.00633093 0.02585690 0.00000000) 
        (0.00719545 0.02678050 0.00000000) 
        (0.00809745 0.02769272 0.00000000) 
        (0.00903854 0.02859963 0.00000000) 
        (0.01002044 0.02950096 0.00000000) 
        (0.01104490 0.03039692 0.00000000) 
        (0.01211377 0.03128836 0.00000000) 
        (0.01322898 0.03217660 0.00000000) 
        (0.01439253 0.03306261 0.00000000) 
        (0.01560652 0.03394782 0.00000000) 
        (0.01687315 0.03483454 0.00000000) 
        (0.01819468 0.03572539 0.00000000) 
        (0.01957350 0.03662090 0.00000000) 
        (0.02101209 0.03752140 0.00000000) 
        (0.02251305 0.03842759 0.00000000) 
        (0.02407908 0.03934007 0.00000000) 
        (0.02571299 0.04025931 0.00000000) 
        (0.02741774 0.04118622 0.00000000) 
        (0.02919639 0.04212139 0.00000000) 
        (0.03105215 0.04306510 0.00000000) 
        (0.03298835 0.04401784 0.00000000) 
        (0.03500849 0.04497988 0.00000000) 
        (0.03711621 0.04595159 0.00000000) 
        (0.03931529 0.04693325 0.00000000) 
        (0.04160971 0.04792504 0.00000000) 
        (0.04400360 0.04892719 0.00000000) 
        (0.04650126 0.04993976 0.00000000) 
        (0.04910720 0.05096288 0.00000000) 
        (0.05182611 0.05199655 0.00000000) 
        (0.05466288 0.05304074 0.00000000) 
        (0.05762263 0.05409537 0.00000000) 
        (0.06071069 0.05516029 0.00000000) 
        (0.06393262 0.05623529 0.00000000) 
        (0.06729423 0.05732008 0.00000000) 
        (0.07080156 0.05841431 0.00000000) 
        (0.07446094 0.05951755 0.00000000) 
        (0.07827895 0.06062927 0.00000000) 
        (0.08226248 0.06174885 0.00000000) 
        (0.08641870 0.06287560 0.00000000) 
        (0.09075510 0.06400869 0.00000000) 
        (0.09527948 0.06514718 0.00000000) 
        (0.10000000 0.06629002 0.00000000) 
        (0.10400000 0.06722425 0.00000000) 
        (0.10800000 0.06812856 0.00000000) 
        (0.11200000 0.06900416 0.00000000) 
        (0.11600000 0.06985218 0.00000000) 
        (0.12000000 0.07067365 0.00000000) 
        (0.12400000 0.07146951 0.00000000) 
        (0.12800000 0.07224063 0.00000000) 
        (0.13200000 0.07298783 0.00000000) 
        (0.13600000 0.07371186 0.00000000) 
        (0.14000000 0.07441342 0.00000000) 
        (0.14400000 0.07509317 0.00000000) 
        (0.14800000 0.07575171 0.00000000) 
        (0.15200000 0.07638962 0.00000000) 
        (0.15600000 0.07700744 0.00000000) 
        (0.16000000 0.07760567 0.00000000) 
        (0.16400000 0.07818481 0.00000000) 
        (0.16800000 0.07874529 0.00000000) 
        (0.17200000 0.07928754 0.00000000) 
        (0.17600000 0.07981198 0.00000000) 
        (0.18000000 0.08031898 0.00000000) 
        (0.18400000 0.08080891 0.00000000) 
        (0.18800000 0.08128212 0.00000000) 
        (0.19200000 0.08173893 0.00000000) 
        (0.19600000 0.08217967 0.00000000) 
        (0.20000000 0.08260463 0.00000000) 
        (0.20400000 0.08301410 0.00000000) 
        (0.20800000 0.08340836 0.00000000) 
        (0.21200000 0.08378767 0.00000000) 
        (0.21600000 0.08415228 0.00000000) 
        (0.22000000 0.08450244 0.00000000) 
        (0.22400000 0.08483838 0.00000000) 
        (0.22800000 0.08516032 0.00000000) 
        (0.23200000 0.08546848 0.00000000) 
        (0.23600000 0.08576307 0.00000000) 
        (0.24000000 0.08604428 0.00000000) 
        (0.24400000 0.08631231 0.00000000) 
        (0.24800000 0.08656735 0.00000000) 
        (0.25200000 0.08680958 0.00000000) 
        (0.25600000 0.08703916 0.00000000) 
        (0.26000000 0.08725627 0.00000000) 
        (0.26400000 0.08746107 0.00000000) 
        (0.26800000 0.08765372 0.00000000) 
        (0.27200000 0.08783436 0.00000000) 
        (0.27600000 0.08800316 0.00000000) 
        (0.28000000 0.08816024 0.00000000) 
        (0.28400000 0.08830575 0.00000000) 
        (0.28800000 0.08843983 0.00000000) 
        (0.29200000 0.08856260 0.00000000) 
        (0.29600000 0.08867419 0.00000000) 
        (0.30000000 0.08877472 0.00000000) 
        (0.30454545 0.08887570 0.00000000) 
        (0.30909091 0.08896273 0.00000000) 
        (0.31363636 0.08903598 0.00000000) 
        (0.31818182 0.08909560 0.00000000) 
        (0.32272727 0.08914176 0.00000000) 
        (0.32727273 0.08917460 0.00000000) 
        (0.33181818 0.08919428 0.00000000) 
        (0.33636364 0.08920093 0.00000000) 
        (0.34090909 0.08919469 0.00000000) 
        (0.34545455 0.08917571 0.00000000) 
        (0.35000000 0.08914410 0.00000000) 
        (0.35454545 0.08910001 0.00000000) 
        (0.35909091 0.08904354 0.00000000) 
        (0.36363636 0.08897484 0.00000000) 
        (0.36818182 0.08889400 0.00000000) 
        (0.37272727 0.08880115 0.00000000) 
        (0.37727273 0.08869640 0.00000000) 
        (0.38181818 0.08857986 0.00000000) 
        (0.38636364 0.08845163 0.00000000) 
        (0.39090909 0.08831181 0.00000000) 
        (0.39545455 0.08816055 0.00000000) 
        (0.40000000 0.08799780 0.00000000) 
        (0.40454545 0.08782390 0.00000000) 
        (0.40909091 0.08764148 0.00000000) 
        (0.41363636 0.08745069 0.00000000) 
        (0.41818182 0.08725161 0.00000000) 
        (0.42272727 0.08704435 0.00000000) 
        (0.42727273 0.08682898 0.00000000) 
        (0.43181818 0.08660559 0.00000000) 
        (0.43636364 0.08637428 0.00000000) 
        (0.44090909 0.08613512 0.00000000) 
        (0.44545455 0.08588819 0.00000000) 
        (0.45000000 0.08563358 0.00000000) 
        (0.45454545 0.08537135 0.00000000) 
        (0.45909091 0.08510160 0.00000000) 
        (0.46363636 0.08482438 0.00000000) 
        (0.46818182 0.08453978 0.00000000) 
        (0.47272727 0.08424785 0.00000000) 
        (0.47727273 0.08394868 0.00000000) 
        (0.48181818 0.08364233 0.00000000) 
        (0.48636364 0.08332886 0.00000000) 
        (0.49090909 0.08300834 0.00000000) 
        (0.49545455 0.08268083 0.00000000) 
        (0.50000000 0.08234640 0.00000000) 
        (0.50454545 0.08200509 0.00000000) 
        (0.50909091 0.08165698 0.00000000) 
        (0.51363636 0.08130212 0.00000000) 
        (0.51818182 0.08094056 0.00000000) 
        (0.52272727 0.08057235 0.00000000) 
        (0.52727273 0.08019756 0.00000000) 
        (0.53181818 0.07981623 0.00000000) 
        (0.53636364 0.07942841 0.00000000) 
        (0.54090909 0.07903415 0.00000000) 
        (0.54545455 0.07863351 0.00000000) 
        (0.55000000 0.07822652 0.00000000) 
        (0.55454545 0.07781323 0.00000000) 
        (0.55909091 0.07739368 0.00000000) 
        (0.56363636 0.07696793 0.00000000) 
        (0.56818182 0.07653601 0.00000000) 
        (0.57272727 0.07609796 0.00000000) 
        (0.57727273 0.07565382 0.00000000) 
        (0.58181818 0.07520363 0.00000000) 
        (0.58636364 0.07474742 0.00000000) 
        (0.59090909 0.07428524 0.00000000) 
        (0.59545455 0.07381713 0.00000000) 
        (0.60000000 0.07334310 0.00000000) 
        (0.60454545 0.07286320 0.00000000) 
        (0.60909091 0.07237746 0.00000000) 
        (0.61363636 0.07188590 0.00000000) 
        (0.61818182 0.07138857 0.00000000) 
        (0.62272727 0.07088548 0.00000000) 
        (0.62727273 0.07037667 0.00000000) 
        (0.63181818 0.06986217 0.00000000) 
        (0.63636364 0.06934199 0.00000000) 
        (0.64090909 0.06881617 0.00000000) 
        (0.64545455 0.06828473 0.00000000) 
        (0.65000000 0.06774769 0.00000000) 
        (0.65454545 0.06720507 0.00000000) 
        (0.65909091 0.06665689 0.00000000) 
        (0.66363636 0.06610319 0.00000000) 
        (0.66818182 0.06554396 0.00000000) 
        (0.67272727 0.06497924 0.00000000) 
        (0.67727273 0.06440904 0.00000000) 
        (0.68181818 0.06383337 0.00000000) 
        (0.68636364 0.06325226 0.00000000) 
        (0.69090909 0.06266571 0.00000000) 
        (0.69545455 0.06207375 0.00000000) 
        (0.70000000 0.06147637 0.00000000) 
        (0.70617715 0.06065592 0.00000000) 
        (0.71230279 0.05983249 0.00000000) 
        (0.71837734 0.05900630 0.00000000) 
        (0.72440124 0.05817756 0.00000000) 
        (0.73037490 0.05734646 0.00000000) 
        (0.73629875 0.05651318 0.00000000) 
        (0.74217319 0.05567792 0.00000000) 
        (0.74799865 0.05484083 0.00000000) 
        (0.75377553 0.05400210 0.00000000) 
        (0.75950423 0.05316187 0.00000000) 
        (0.76518516 0.05232030 0.00000000) 
        (0.77081872 0.05147755 0.00000000) 
        (0.77640529 0.05063376 0.00000000) 
        (0.78194528 0.04978906 0.00000000) 
        (0.78743907 0.04894359 0.00000000) 
        (0.79288705 0.04809748 0.00000000) 
        (0.79828959 0.04725085 0.00000000) 
        (0.80364708 0.04640381 0.00000000) 
        (0.80895989 0.04555649 0.00000000) 
        (0.81422840 0.04470900 0.00000000) 
        (0.81945298 0.04386144 0.00000000) 
        (0.82463398 0.04301392 0.00000000) 
        (0.82977178 0.04216654 0.00000000) 
        (0.83486673 0.04131939 0.00000000) 
        (0.83991920 0.04047257 0.00000000) 
        (0.84492953 0.03962616 0.00000000) 
        (0.84989808 0.03878026 0.00000000) 
        (0.85482520 0.03793494 0.00000000) 
        (0.85971122 0.03709030 0.00000000) 
        (0.86455651 0.03624640 0.00000000) 
        (0.86936138 0.03540333 0.00000000) 
        (0.87412619 0.03456116 0.00000000) 
        (0.87885126 0.03371996 0.00000000) 
        (0.88353693 0.03287979 0.00000000) 
        (0.88818352 0.03204073 0.00000000) 
        (0.89279137 0.03120284 0.00000000) 
        (0.89736079 0.03036619 0.00000000) 
        (0.90189210 0.02953082 0.00000000) 
        (0.90638563 0.02869681 0.00000000) 
        (0.91084168 0.02786422 0.00000000) 
        (0.91526057 0.02703308 0.00000000) 
        (0.91964262 0.02620346 0.00000000) 
        (0.92398812 0.02537542 0.00000000) 
        (0.92829738 0.02454899 0.00000000) 
        (0.93257071 0.02372424 0.00000000) 
        (0.93680840 0.02290120 0.00000000) 
        (0.94101075 0.02207993 0.00000000) 
        (0.94517805 0.02126047 0.00000000) 
        (0.94931061 0.02044285 0.00000000) 
        (0.95340870 0.01962713 0.00000000) 
        (0.95747262 0.01881335 0.00000000) 
        (0.96150265 0.01800154 0.00000000) 
        (0.96549907 0.01719174 0.00000000) 
        (0.96946216 0.01638400 0.00000000) 
        (0.97339220 0.01557834 0.00000000) 
        (0.97728947 0.01477480 0.00000000) 
        (0.98115424 0.01397342 0.00000000) 
        (0.98498679 0.01317423 0.00000000) 
        (0.98878737 0.01237726 0.00000000) 
        (0.99255625 0.01158255 0.00000000) 
        (0.99629371 0.01079012 0.00000000) 
        (1.00000000 0.01000000 0.00000000) 
        ) 
    spline 4 5 ( 
        (0.00000000 -0.01000000 0.00500000) 
        (0.00059006 -0.01296978 0.00500000) 
        (0.00120571 -0.01466873 0.00500000) 
        (0.00184804 -0.01601537 0.00500000) 
        (0.00251822 -0.01717793 0.00500000) 
        (0.00321745 -0.01822445 0.00500000) 
        (0.00394700 -0.01919040 0.00500000) 
        (0.00470817 -0.02009696 0.00500000) 
        (0.00550234 -0.02095922 0.00500000) 
        (0.00633093 -0.02179016 0.00500000) 
        (0.00719545 -0.02259153 0.00500000) 
        (0.00809745 -0.02336495 0.00500000) 
        (0.00903854 -0.02411356 0.00500000) 
        (0.01002044 -0.02484238 0.00500000) 
        (0.01104490 -0.02555853 0.00500000) 
        (0.01211377 -0.02626652 0.00500000) 
        (0.01322898 -0.02696615 0.00500000) 
        (0.01439253 -0.02765733 0.00500000) 
        (0.01560652 -0.02834052 0.00500000) 
        (0.01687315 -0.02901668 0.00500000) 
        (0.01819468 -0.02968628 0.00500000) 
        (0.01957350 -0.03034968 0.00500000) 
        (0.02101209 -0.03100783 0.00500000) 
        (0.02251305 -0.03166209 0.00500000) 
        (0.02407908 -0.03231267 0.00500000) 
        (0.02571299 -0.03295948 0.00500000) 
        (0.02741774 -0.03360282 0.00500000) 
        (0.02919639 -0.03424278 0.00500000) 
        (0.03105215 -0.03487932 0.00500000) 
        (0.03298835 -0.03551273 0.00500000) 
        (0.03500849 -0.03614294 0.00500000) 
        (0.03711621 -0.03676982 0.00500000) 
        (0.03931529 -0.03739333 0.00500000) 
        (0.04160971 -0.03801321 0.00500000) 
        (0.04400360 -0.03862934 0.00500000) 
        (0.04650126 -0.03924139 0.00500000) 
        (0.04910720 -0.03984910 0.00500000) 
        (0.05182611 -0.04045208 0.00500000) 
        (0.05466288 -0.04104995 0.00500000) 
        (0.05762263 -0.04164224 0.00500000) 
        (0.06071069 -0.04222847 0.00500000) 
        (0.06393262 -0.04280806 0.00500000) 
        (0.06729423 -0.04338041 0.00500000) 
        (0.07080156 -0.04394488 0.00500000) 
        (0.07446094 -0.04450073 0.00500000) 
        (0.07827895 -0.04504721 0.00500000) 
        (0.08226248 -0.04558349 0.00500000) 
        (0.08641870 -0.04610869 0.00500000) 
        (0.09075510 -0.04662185 0.00500000) 
        (0.09527948 -0.04712198 0.00500000) 
        (0.10000000 -0.04760800 0.00500000) 
        (0.10400000 -0.04799306 0.00500000) 
        (0.10800000 -0.04835501 0.00500000) 
        (0.11200000 -0.04869510 0.00500000) 
        (0.11600000 -0.04901445 0.00500000) 
        (0.12000000 -0.04931412 0.00500000) 
        (0.12400000 -0.04959507 0.00500000) 
        (0.12800000 -0.04985819 0.00500000) 
        (0.13200000 -0.05010431 0.00500000) 
        (0.13600000 -0.05033420 0.00500000) 
        (0.14000000 -0.05054857 0.00500000) 
        (0.14400000 -0.05074809 0.00500000) 
        (0.14800000 -0.05093339 0.00500000) 
        (0.15200000 -0.05110505 0.00500000) 
        (0.15600000 -0.05126363 0.00500000) 
        (0.16000000 -0.05140966 0.00500000) 
        (0.16400000 -0.05154362 0.00500000) 
        (0.16800000 -0.05166597 0.00500000) 
        (0.17200000 -0.05177716 0.00500000) 
        (0.17600000 -0.05187761 0.00500000) 
        (0.18000000 -0.05196771 0.00500000) 
        (0.18400000 -0.05204785 0.00500000) 
        (0.18800000 -0.05211837 0.00500000) 
        (0.19200000 -0.05217964 0.00500000) 
        (0.19600000 -0.05223196 0.00500000) 
        (0.20000000 -0.05227566 0.00500000) 
        (0.20400000 -0.05231104 0.00500000) 
        (0.20800000 -0.05233839 0.00500000) 
        (0.21200000 -0.05235797 0.00500000) 
        (0.21600000 -0.05237007 0.00500000) 
        (0.22000000 -0.05237493 0.00500000) 
        (0.22400000 -0.05237279 0.00500000) 
        (0.22800000 -0.05236391 0.00500000) 
        (0.23200000 -0.05234849 0.00500000) 
        (0.23600000 -0.05232677 0.00500000) 
        (0.24000000 -0.05229896 0.00500000) 
        (0.24400000 -0.05226526 0.00500000) 
        (0.24800000 -0.05222586 0.00500000) 
        (0.25200000 -0.05218097 0.00500000) 
        (0.25600000 -0.05213077 0.00500000) 
        (0.26000000 -0.05207544 0.00500000) 
        (0.26400000 -0.05201515 0.00500000) 
        (0.26800000 -0.05195007 0.00500000) 
        (0.27200000 -0.05188037 0.00500000) 
        (0.27600000 -0.05180620 0.00500000) 
        (0.28000000 -0.05172773 0.00500000) 
        (0.28400000 -0.05164510 0.00500000) 
        (0.28800000 -0.05155846 0.00500000) 
        (0.29200000 -0.05146796 0.00500000) 
        (0.29600000 -0.05137372 0.00500000) 
        (0.30000000 -0.05127589 0.00500000) 
        (0.30454545 -0.05116053 0.00500000) 
        (0.30909091 -0.05104089 0.00500000) 
        (0.31363636 -0.05091715 0.00500000) 
        (0.31818182 -0.05078948 0.00500000) 
        (0.32272727 -0.05065807 0.00500000) 
        (0.32727273 -0.05052308 0.00500000) 
        (0.33181818 -0.05038467 0.00500000) 
        (0.33636364 -0.05024301 0.00500000) 
        (0.34090909 -0.05009824 0.00500000) 
        (0.34545455 -0.04995052 0.00500000) 
        (0.35000000 -0.04980000 0.00500000) 
        (0.35454545 -0.04964682 0.00500000) 
        (0.35909091 -0.04949112 0.00500000) 
        (0.36363636 -0.04933303 0.00500000) 
        (0.36818182 -0.04917269 0.00500000) 
        (0.37272727 -0.04901024 0.00500000) 
        (0.37727273 -0.04884579 0.00500000) 
        (0.38181818 -0.04867947 0.00500000) 
        (0.38636364 -0.04851139 0.00500000) 
        (0.39090909 -0.04834170 0.00500000) 
        (0.39545455 -0.04817045 0.00500000) 
        (0.40000000 -0.04799790 0.00500000) 
        (0.40454545 -0.04782393 0.00500000) 
        (0.40909091 -0.04764597 0.00500000) 
        (0.41363636 -0.04746409 0.00500000) 
        (0.41818182 -0.04727840 0.00500000) 
        (0.42272727 -0.04708897 0.00500000) 
        (0.42727273 -0.04689592 0.00500000) 
        (0.43181818 -0.04669932 0.00500000) 
        (0.43636364 -0.04649928 0.00500000) 
        (0.44090909 -0.04629587 0.00500000) 
        (0.44545455 -0.04608919 0.00500000) 
        (0.45000000 -0.04587933 0.00500000) 
        (0.45454545 -0.04566635 0.00500000) 
        (0.45909091 -0.04545035 0.00500000) 
        (0.46363636 -0.04523141 0.00500000) 
        (0.46818182 -0.04500959 0.00500000) 
        (0.47272727 -0.04478498 0.00500000) 
        (0.47727273 -0.04455765 0.00500000) 
        (0.48181818 -0.04432768 0.00500000) 