/*--------------------------------*- C++ -*----------------------------------*\ 
| =========                 |                                                 | 
| \      /  F ield         | OpenFOAM: The Open Source CFD Toolbox           | 
|  \    /   O peration     | Version:  5                                     | 
|   \  /    A nd           | Web:      www.OpenFOAM.org                      | 
|    \/     M anipulation  |                                                 | 
\*---------------------------------------------------------------------------*/ 

FoamFile 
{ 
    version     2.0; 
    format      ascii; 
    class       dictionary; 
    object      blockMeshDict;; 
} 
// * * * * * * * * * * * * * * * * * * * * * * * * * * * * * * * * * * * * * // 

convertToMeters 1; 

vertices 
( 
    (0.00 -0.05 0.00) 
    (1.00 -0.05 0.00) 
    (1.00 0.05 0.00) 
    (0.00 0.05 0.00) 
    (0.00 -0.05 0.01) 
    (1.00 -0.05 0.01) 
    (1.00 0.05 0.01) 
    (0.00 0.05 0.01) 
); 

blocks 
( 
    hex (0 1 2 3 4 5 6 7) (250 10 1) simpleGrading 
    ( 
     ( 
     (0.100 0.200 20.000) 
     (0.200 0.200 1.000) 
     (0.400 0.350 1.000) 
     (0.300 0.250 0.600) 
     ) 
    1 
    1 
    ) 
); 

edges 
( 
    spline 0 1 ( 
        (0.00000000 -0.05000000 0.00000000) 
        (0.00031117 -0.05114473 0.00000000) 
        (0.00064195 -0.05196575 0.00000000) 
        (0.00099359 -0.05265201 0.00000000) 
        (0.00136739 -0.05326128 0.00000000) 
        (0.00176477 -0.05382021 0.00000000) 
        (0.00218719 -0.05434359 0.00000000) 
        (0.00263625 -0.05484060 0.00000000) 
        (0.00311362 -0.05531738 0.00000000) 
        (0.00362108 -0.05577820 0.00000000) 
        (0.00416053 -0.05622616 0.00000000) 
        (0.00473400 -0.05666360 0.00000000) 
        (0.00534362 -0.05709227 0.00000000) 
        (0.00599168 -0.05751350 0.00000000) 
        (0.00668059 -0.05792833 0.00000000) 
        (0.00741293 -0.05833754 0.00000000) 
        (0.00819144 -0.05874172 0.00000000) 
        (0.00901904 -0.05914128 0.00000000) 
        (0.00989881 -0.05953712 0.00000000) 
        (0.01083404 -0.05992933 0.00000000) 
        (0.01182824 -0.06031691 0.00000000) 
        (0.01288512 -0.06069928 0.00000000) 
        (0.01400863 -0.06107649 0.00000000) 
        (0.01520296 -0.06144947 0.00000000) 
        (0.01647260 -0.06181852 0.00000000) 
        (0.01782228 -0.06218254 0.00000000) 
        (0.01925705 -0.06254066 0.00000000) 
        (0.02078228 -0.06289244 0.00000000) 
        (0.02240366 -0.06323733 0.00000000) 
        (0.02412726 -0.06357422 0.00000000) 
        (0.02595953 -0.06390242 0.00000000) 
        (0.02790731 -0.06422129 0.00000000) 
        (0.02997790 -0.06452950 0.00000000) 
        (0.03217902 -0.06482598 0.00000000) 
        (0.03451891 -0.06510944 0.00000000) 
        (0.03700632 -0.06537845 0.00000000) 
        (0.03965054 -0.06563158 0.00000000) 
        (0.04246148 -0.06586713 0.00000000) 
        (0.04544962 -0.06608333 0.00000000) 
        (0.04862616 -0.06627825 0.00000000) 
        (0.05200296 -0.06644978 0.00000000) 
        (0.05559265 -0.06659570 0.00000000) 
        (0.05940865 -0.06671357 0.00000000) 
        (0.06346523 -0.06680077 0.00000000) 
        (0.06777756 -0.06685450 0.00000000) 
        (0.07236176 -0.06687177 0.00000000) 
        (0.07723497 -0.06684936 0.00000000) 
        (0.08241541 -0.06678384 0.00000000) 
        (0.08792245 -0.06667153 0.00000000) 
        (0.09377669 -0.06650855 0.00000000) 
        (0.10000000 -0.06629075 0.00000000) 
        (0.10400000 -0.06612856 0.00000000) 
        (0.10800000 -0.06595026 0.00000000) 
        (0.11200000 -0.06575679 0.00000000) 
        (0.11600000 -0.06554902 0.00000000) 
        (0.12000000 -0.06532775 0.00000000) 
        (0.12400000 -0.06509372 0.00000000) 
        (0.12800000 -0.06484760 0.00000000) 
        (0.13200000 -0.06459003 0.00000000) 
        (0.13600000 -0.06432159 0.00000000) 
        (0.14000000 -0.06404283 0.00000000) 
        (0.14400000 -0.06375427 0.00000000) 
        (0.14800000 -0.06345637 0.00000000) 
        (0.15200000 -0.06314959 0.00000000) 
        (0.15600000 -0.06283436 0.00000000) 
        (0.16000000 -0.06251106 0.00000000) 
        (0.16400000 -0.06218008 0.00000000) 
        (0.16800000 -0.06184177 0.00000000) 
        (0.17200000 -0.06149646 0.00000000) 
        (0.17600000 -0.06114449 0.00000000) 
        (0.18000000 -0.06078614 0.00000000) 
        (0.18400000 -0.06042171 0.00000000) 
        (0.18800000 -0.06005147 0.00000000) 
        (0.19200000 -0.05967569 0.00000000) 
        (0.19600000 -0.05929461 0.00000000) 
        (0.20000000 -0.05890848 0.00000000) 
        (0.20400000 -0.05851753 0.00000000) 
        (0.20800000 -0.05812197 0.00000000) 
        (0.21200000 -0.05772203 0.00000000) 
        (0.21600000 -0.05731789 0.00000000) 
        (0.22000000 -0.05690975 0.00000000) 
        (0.22400000 -0.05649781 0.00000000) 
        (0.22800000 -0.05608224 0.00000000) 
        (0.23200000 -0.05566322 0.00000000) 
        (0.23600000 -0.05524091 0.00000000) 
        (0.24000000 -0.05481549 0.00000000) 
        (0.24400000 -0.05438710 0.00000000) 
        (0.24800000 -0.05395589 0.00000000) 
        (0.25200000 -0.05352202 0.00000000) 
        (0.25600000 -0.05308563 0.00000000) 
        (0.26000000 -0.05264685 0.00000000) 
        (0.26400000 -0.05220582 0.00000000) 
        (0.26800000 -0.05176267 0.00000000) 
        (0.27200000 -0.05131752 0.00000000) 
        (0.27600000 -0.05087049 0.00000000) 
        (0.28000000 -0.05042171 0.00000000) 
        (0.28400000 -0.04997129 0.00000000) 
        (0.28800000 -0.04951934 0.00000000) 
        (0.29200000 -0.04906597 0.00000000) 
        (0.29600000 -0.04861129 0.00000000) 
        (0.30000000 -0.04815540 0.00000000) 
        (0.30454545 -0.04763600 0.00000000) 
        (0.30909091 -0.04711531 0.00000000) 
        (0.31363636 -0.04659348 0.00000000) 
        (0.31818182 -0.04607064 0.00000000) 
        (0.32272727 -0.04554692 0.00000000) 
        (0.32727273 -0.04502245 0.00000000) 
        (0.33181818 -0.04449735 0.00000000) 
        (0.33636364 -0.04397175 0.00000000) 
        (0.34090909 -0.04344577 0.00000000) 
        (0.34545455 -0.04291951 0.00000000) 
        (0.35000000 -0.04239311 0.00000000) 
        (0.35454545 -0.04186666 0.00000000) 
        (0.35909091 -0.04134027 0.00000000) 
        (0.36363636 -0.04081404 0.00000000) 
        (0.36818182 -0.04028809 0.00000000) 
        (0.37272727 -0.03976250 0.00000000) 
        (0.37727273 -0.03923738 0.00000000) 
        (0.38181818 -0.03871282 0.00000000) 
        (0.38636364 -0.03818892 0.00000000) 
        (0.39090909 -0.03766575 0.00000000) 
        (0.39545455 -0.03714342 0.00000000) 
        (0.40000000 -0.03662201 0.00000000) 
        (0.40454545 -0.03610160 0.00000000) 
        (0.40909091 -0.03558227 0.00000000) 
        (0.41363636 -0.03506411 0.00000000) 
        (0.41818182 -0.03454719 0.00000000) 
        (0.42272727 -0.03403160 0.00000000) 
        (0.42727273 -0.03351740 0.00000000) 
        (0.43181818 -0.03300467 0.00000000) 
        (0.43636364 -0.03249348 0.00000000) 
        (0.44090909 -0.03198390 0.00000000) 
        (0.44545455 -0.03147600 0.00000000) 
        (0.45000000 -0.03096985 0.00000000) 
        (0.45454545 -0.03046552 0.00000000) 
        (0.45909091 -0.02996306 0.00000000) 
        (0.46363636 -0.02946253 0.00000000) 
        (0.46818182 -0.02896401 0.00000000) 
        (0.47272727 -0.02846755 0.00000000) 
        (0.47727273 -0.02797321 0.00000000) 
        (0.48181818 -0.02748104 0.00000000) 
        (0.48636364 -0.02699111 0.00000000) 
        (0.49090909 -0.02650346 0.00000000) 
        (0.49545455 -0.02601815 0.00000000) 
        (0.50000000 -0.02553523 0.00000000) 
        (0.50454545 -0.02505476 0.00000000) 
        (0.50909091 -0.02457677 0.00000000) 
        (0.51363636 -0.02410133 0.00000000) 
        (0.51818182 -0.02362847 0.00000000) 
        (0.52272727 -0.02315825 0.00000000) 
        (0.52727273 -0.02269070 0.00000000) 
        (0.53181818 -0.02222588 0.00000000) 
        (0.53636364 -0.02176383 0.00000000) 
        (0.54090909 -0.02130457 0.00000000) 
        (0.54545455 -0.02084817 0.00000000) 
        (0.55000000 -0.02039466 0.00000000) 
        (0.55454545 -0.01994407 0.00000000) 
        (0.55909091 -0.01949644 0.00000000) 
        (0.56363636 -0.01905182 0.00000000) 
        (0.56818182 -0.01861023 0.00000000) 
        (0.57272727 -0.01817171 0.00000000) 
        (0.57727273 -0.01773629 0.00000000) 
        (0.58181818 -0.01730402 0.00000000) 
        (0.58636364 -0.01687491 0.00000000) 
        (0.59090909 -0.01644900 0.00000000) 
        (0.59545455 -0.01602632 0.00000000) 
        (0.60000000 -0.01560690 0.00000000) 
        (0.60454545 -0.01519077 0.00000000) 
        (0.60909091 -0.01477795 0.00000000) 
        (0.61363636 -0.01436847 0.00000000) 
        (0.61818182 -0.01396236 0.00000000) 
        (0.62272727 -0.01355964 0.00000000) 
        (0.62727273 -0.01316034 0.00000000) 
        (0.63181818 -0.01276448 0.00000000) 
        (0.63636364 -0.01237207 0.00000000) 
        (0.64090909 -0.01198315 0.00000000) 
        (0.64545455 -0.01159773 0.00000000) 
        (0.65000000 -0.01121584 0.00000000) 
        (0.65454545 -0.01083748 0.00000000) 
        (0.65909091 -0.01046269 0.00000000) 
        (0.66363636 -0.01009147 0.00000000) 
        (0.66818182 -0.00972385 0.00000000) 
        (0.67272727 -0.00935984 0.00000000) 
        (0.67727273 -0.00899946 0.00000000) 
        (0.68181818 -0.00864272 0.00000000) 
        (0.68636364 -0.00828962 0.00000000) 
        (0.69090909 -0.00794021 0.00000000) 
        (0.69545455 -0.00759449 0.00000000) 
        (0.70000000 -0.00725120 0.00000000) 
        (0.70617715 -0.00680215 0.00000000) 
        (0.71230279 -0.00641363 0.00000000) 
        (0.71837734 -0.00608416 0.00000000) 
        (0.72440124 -0.00581284 0.00000000) 
        (0.73037490 -0.00559802 0.00000000) 
        (0.73629875 -0.00543825 0.00000000) 
        (0.74217319 -0.00533210 0.00000000) 
        (0.74799865 -0.00527815 0.00000000) 
        (0.75377553 -0.00527502 0.00000000) 
        (0.75950423 -0.00532134 0.00000000) 
        (0.76518516 -0.00541579 0.00000000) 
        (0.77081872 -0.00555704 0.00000000) 
        (0.77640529 -0.00574383 0.00000000) 
        (0.78194528 -0.00597489 0.00000000) 
        (0.78743907 -0.00624899 0.00000000) 
        (0.79288705 -0.00656492 0.00000000) 
        (0.79828959 -0.00692151 0.00000000) 
        (0.80364708 -0.00731759 0.00000000) 
        (0.80895989 -0.00775202 0.00000000) 
        (0.81422840 -0.00822371 0.00000000) 
        (0.81945298 -0.00873155 0.00000000) 
        (0.82463398 -0.00927449 0.00000000) 
        (0.82977178 -0.00985148 0.00000000) 
        (0.83486673 -0.01046151 0.00000000) 
        (0.83991920 -0.01110357 0.00000000) 
        (0.84492953 -0.01177669 0.00000000) 
        (0.84989808 -0.01247992 0.00000000) 
        (0.85482520 -0.01321231 0.00000000) 
        (0.85971122 -0.01397296 0.00000000) 
        (0.86455651 -0.01476097 0.00000000) 
        (0.86936138 -0.01557547 0.00000000) 
        (0.87412619 -0.01641559 0.00000000) 
        (0.87885126 -0.01728052 0.00000000) 
        (0.88353693 -0.01816943 0.00000000) 
        (0.88818352 -0.01908151 0.00000000) 
        (0.89279137 -0.02001600 0.00000000) 
        (0.89736079 -0.02097212 0.00000000) 
        (0.90189210 -0.02194913 0.00000000) 
        (0.90638563 -0.02294631 0.00000000) 
        (0.91084168 -0.02396294 0.00000000) 
        (0.91526057 -0.02499833 0.00000000) 
        (0.91964262 -0.02605179 0.00000000) 
        (0.92398812 -0.02712266 0.00000000) 
        (0.92829738 -0.02821030 0.00000000) 
        (0.93257071 -0.02931407 0.00000000) 
        (0.93680840 -0.03043336 0.00000000) 
        (0.94101075 -0.03156755 0.00000000) 
        (0.94517805 -0.03271606 0.00000000) 
        (0.94931061 -0.03387831 0.00000000) 
        (0.95340870 -0.03505375 0.00000000) 
        (0.95747262 -0.03624182 0.00000000) 
        (0.96150265 -0.03744199 0.00000000) 
        (0.96549907 -0.03865373 0.00000000) 
        (0.96946216 -0.03987653 0.00000000) 
        (0.97339220 -0.04110990 0.00000000) 
        (0.97728947 -0.04235335 0.00000000) 
        (0.98115424 -0.04360641 0.00000000) 
        (0.98498679 -0.04486861 0.00000000) 
        (0.98878737 -0.04613951 0.00000000) 
        (0.99255625 -0.04741866 0.00000000) 
        (0.99629371 -0.04870563 0.00000000) 
        (1.00000000 -0.05000000 0.00000000) 
        ) 
    polyLine 3 2 ( 
        (0.00000000 0.05000000 0.00000000) 
        (0.00031117 0.05472419 0.00000000) 
        (0.00064195 0.05564885 0.00000000) 
        (0.00099359 0.05644998 0.00000000) 
        (0.00136739 0.05718459 0.00000000) 
        (0.00176477 0.05787922 0.00000000) 
        (0.00218719 0.05854884 0.00000000) 
        (0.00263625 0.05920297 0.00000000) 
        (0.00311362 0.05984819 0.00000000) 
        (0.00362108 0.06048932 0.00000000) 
        (0.00416053 0.06113008 0.00000000) 
        (0.00473400 0.06177346 0.00000000) 
        (0.00534362 0.06242271 0.00000000) 
        (0.00599168 0.06308077 0.00000000) 
        (0.00668059 0.06374759 0.00000000) 
        (0.00741293 0.06442356 0.00000000) 
        (0.00819144 0.06510987 0.00000000) 
        (0.00901904 0.06580890 0.00000000) 
        (0.00989881 0.06652424 0.00000000) 
        (0.01083404 0.06725769 0.00000000) 
        (0.01182824 0.06800948 0.00000000) 
        (0.01288512 0.06878024 0.00000000) 
        (0.01400863 0.06957117 0.00000000) 
        (0.01520296 0.07038372 0.00000000) 
        (0.01647260 0.07121870 0.00000000) 
        (0.01782228 0.07207720 0.00000000) 
        (0.01925705 0.07296100 0.00000000) 
        (0.02078228 0.07387148 0.00000000) 
        (0.02240366 0.07480954 0.00000000) 
        (0.02412726 0.07577652 0.00000000) 
        (0.02595953 0.07677365 0.00000000) 
        (0.02790731 0.07780210 0.00000000) 
        (0.02997790 0.07886335 0.00000000) 
        (0.03217902 0.07995854 0.00000000) 
        (0.03451891 0.08108905 0.00000000) 
        (0.03700632 0.08225609 0.00000000) 
        (0.03965054 0.08346103 0.00000000) 
        (0.04246148 0.08470508 0.00000000) 
        (0.04544962 0.08598955 0.00000000) 
        (0.04862616 0.08731567 0.00000000) 
        (0.05200296 0.08868463 0.00000000) 
        (0.05559265 0.09009763 0.00000000) 
        (0.05940865 0.09155575 0.00000000) 
        (0.06346523 0.09306004 0.00000000) 
        (0.06777756 0.09461145 0.00000000) 
        (0.07236176 0.09621084 0.00000000) 
        (0.07723497 0.09785890 0.00000000) 
        (0.08241541 0.09955622 0.00000000) 
        (0.08792245 0.10130318 0.00000000) 
        (0.09377669 0.10309994 0.00000000) 
        (0.10000000 0.10494643 0.00000000) 
        (0.10400000 0.10610068 0.00000000) 
        (0.10800000 0.10723067 0.00000000) 
        (0.11200000 0.10833733 0.00000000) 
        (0.11600000 0.10942151 0.00000000) 
        (0.12000000 0.11048400 0.00000000) 
        (0.12400000 0.11152552 0.00000000) 
        (0.12800000 0.11254673 0.00000000) 
        (0.13200000 0.11354826 0.00000000) 
        (0.13600000 0.11453067 0.00000000) 
        (0.14000000 0.11549450 0.00000000) 
        (0.14400000 0.11644026 0.00000000) 
        (0.14800000 0.11736841 0.00000000) 
        (0.15200000 0.11827939 0.00000000) 
        (0.15600000 0.11917361 0.00000000) 
        (0.16000000 0.12005146 0.00000000) 
        (0.16400000 0.12091331 0.00000000) 
        (0.16800000 0.12175951 0.00000000) 
        (0.17200000 0.12259037 0.00000000) 
        (0.17600000 0.12340621 0.00000000) 
        (0.18000000 0.12420733 0.00000000) 
        (0.18400000 0.12499400 0.00000000) 
        (0.18800000 0.12576650 0.00000000) 
        (0.19200000 0.12652506 0.00000000) 
        (0.19600000 0.12726995 0.00000000) 
        (0.20000000 0.12800138 0.00000000) 
        (0.20400000 0.12871958 0.00000000) 
        (0.20800000 0.12942476 0.00000000) 
        (0.21200000 0.13011712 0.00000000) 
        (0.21600000 0.13079686 0.00000000) 
        (0.22000000 0.13146416 0.00000000) 
        (0.22400000 0.13211920 0.00000000) 
        (0.22800000 0.13276216 0.00000000) 
        (0.23200000 0.13339320 0.00000000) 
        (0.23600000 0.13401247 0.00000000) 
        (0.24000000 0.13462014 0.00000000) 
        (0.24400000 0.13521635 0.00000000) 
        (0.24800000 0.13580125 0.00000000) 
        (0.25200000 0.13637496 0.00000000) 
        (0.25600000 0.13693763 0.00000000) 
        (0.26000000 0.13748939 0.00000000) 
        (0.26400000 0.13803036 0.00000000) 
        (0.26800000 0.13856066 0.00000000) 
        (0.27200000 0.13908040 0.00000000) 
        (0.27600000 0.13958971 0.00000000) 
        (0.28000000 0.14008869 0.00000000) 
        (0.28400000 0.14057745 0.00000000) 
        (0.28800000 0.14105609 0.00000000) 
        (0.29200000 0.14152471 0.00000000) 
        (0.29600000 0.14198341 0.00000000) 
        (0.30000000 0.14243229 0.00000000) 
        (0.30454545 0.14293057 0.00000000) 
        (0.30909091 0.14341641 0.00000000) 
        (0.31363636 0.14388995 0.00000000) 
        (0.31818182 0.14435130 0.00000000) 
        (0.32272727 0.14480059 0.00000000) 
        (0.32727273 0.14523793 0.00000000) 
        (0.33181818 0.14566343 0.00000000) 
        (0.33636364 0.14607721 0.00000000) 
        (0.34090909 0.14647936 0.00000000) 
        (0.34545455 0.14687001 0.00000000) 
        (0.35000000 0.14724924 0.00000000) 
        (0.35454545 0.14761715 0.00000000) 
        (0.35909091 0.14797385 0.00000000) 
        (0.36363636 0.14831941 0.00000000) 
        (0.36818182 0.14865394 0.00000000) 
        (0.37272727 0.14897752 0.00000000) 
        (0.37727273 0.14929024 0.00000000) 
        (0.38181818 0.14959217 0.00000000) 
        (0.38636364 0.14988341 0.00000000) 
        (0.39090909 0.15016403 0.00000000) 
        (0.39545455 0.15043411 0.00000000) 
        (0.40000000 0.15069372 0.00000000) 
        (0.40454545 0.15094294 0.00000000) 
        (0.40909091 0.15118184 0.00000000) 
        (0.41363636 0.15141049 0.00000000) 
        (0.41818182 0.15162895 0.00000000) 
        (0.42272727 0.15183730 0.00000000) 
        (0.42727273 0.15203560 0.00000000) 
        (0.43181818 0.15222391 0.00000000) 
        (0.43636364 0.15240229 0.00000000) 
        (0.44090909 0.15257080 0.00000000) 
        (0.44545455 0.15272951 0.00000000) 
        (0.45000000 0.15287847 0.00000000) 
        (0.45454545 0.15301773 0.00000000) 
        (0.45909091 0.15314736 0.00000000) 
        (0.46363636 0.15326740 0.00000000) 
        (0.46818182 0.15337790 0.00000000) 
        (0.47272727 0.15347892 0.00000000) 
        (0.47727273 0.15357051 0.00000000) 
        (0.48181818 0.15365271 0.00000000) 
        (0.48636364 0.15372557 0.00000000) 
        (0.49090909 0.15378914 0.00000000) 
        (0.49545455 0.15384346 0.00000000) 
        (0.50000000 0.15388857 0.00000000) 
        (0.50454545 0.15392453 0.00000000) 
        (0.50909091 0.15395136 0.00000000) 
        (0.51363636 0.15396911 0.00000000) 
        (0.51818182 0.15397783 0.00000000) 
        (0.52272727 0.15397754 0.00000000) 
        (0.52727273 0.15396828 0.00000000) 
        (0.53181818 0.15395010 0.00000000) 
        (0.53636364 0.15392302 0.00000000) 
        (0.54090909 0.15388709 0.00000000) 
        (0.54545455 0.15384233 0.00000000) 
        (0.55000000 0.15378877 0.00000000) 
        (0.55454545 0.15372646 0.00000000) 
        (0.55909091 0.15365541 0.00000000) 
        (0.56363636 0.15357567 0.00000000) 
        (0.56818182 0.15348725 0.00000000) 
        (0.57272727 0.15339020 0.00000000) 
        (0.57727273 0.15328452 0.00000000) 
        (0.58181818 0.15317026 0.00000000) 
        (0.58636364 0.15304743 0.00000000) 
        (0.59090909 0.15291606 0.00000000) 
        (0.59545455 0.15277618 0.00000000) 
        (0.60000000 0.15262781 0.00000000) 
        (0.60454545 0.15247096 0.00000000) 
        (0.60909091 0.15230567 0.00000000) 
        (0.61363636 0.15213196 0.00000000) 
        (0.61818182 0.15194983 0.00000000) 
        (0.62272727 0.15175932 0.00000000) 
        (0.62727273 0.15156044 0.00000000) 
        (0.63181818 0.15135320 0.00000000) 
        (0.63636364 0.15113764 0.00000000) 
        (0.64090909 0.15091375 0.00000000) 
        (0.64545455 0.15068156 0.00000000) 
        (0.65000000 0.15044109 0.00000000) 
        (0.65454545 0.15019234 0.00000000) 
        (0.65909091 0.14993533 0.00000000) 
        (0.66363636 0.14967007 0.00000000) 
        (0.66818182 0.14939658 0.00000000) 
        (0.67272727 0.14911486 0.00000000) 
        (0.67727273 0.14882494 0.00000000) 
        (0.68181818 0.14852680 0.00000000) 
        (0.68636364 0.14822049 0.00000000) 
        (0.69090909 0.14790594 0.00000000) 
        (0.69545455 0.14758325 0.00000000) 
        (0.70000000 0.14725361 0.00000000) 
        (0.70617715 0.14678175 0.00000000) 
        (0.71230279 0.14625392 0.00000000) 
        (0.71837734 0.14567097 0.00000000) 
        (0.72440124 0.14503374 0.00000000) 
        (0.73037490 0.14434372 0.00000000) 
        (0.73629875 0.14360215 0.00000000) 
        (0.74217319 0.14281029 0.00000000) 
        (0.74799865 0.14196937 0.00000000) 
        (0.75377553 0.14108058 0.00000000) 
        (0.75950423 0.14014511 0.00000000) 
        (0.76518516 0.13916412 0.00000000) 
        (0.77081872 0.13813874 0.00000000) 
        (0.77640529 0.13707007 0.00000000) 
        (0.78194528 0.13595922 0.00000000) 
        (0.78743907 0.13480724 0.00000000) 
        (0.79288705 0.13361519 0.00000000) 
        (0.79828959 0.13238409 0.00000000) 
        (0.80364708 0.13111496 0.00000000) 
        (0.80895989 0.12980877 0.00000000) 
        (0.81422840 0.12846651 0.00000000) 
        (0.81945298 0.12708911 0.00000000) 
        (0.82463398 0.12567753 0.00000000) 
        (0.82977178 0.12423266 0.00000000) 
        (0.83486673 0.12275541 0.00000000) 
        (0.83991920 0.12124666 0.00000000) 
        (0.84492953 0.11970727 0.00000000) 
        (0.84989808 0.11813810 0.00000000) 
        (0.85482520 0.11653997 0.00000000) 
        (0.85971122 0.11491370 0.00000000) 
        (0.86455651 0.11326009 0.00000000) 
        (0.86936138 0.11157993 0.00000000) 
        (0.87412619 0.10987399 0.00000000) 
        (0.87885126 0.10814303 0.00000000) 
        (0.88353693 0.10638779 0.00000000) 
        (0.88818352 0.10460899 0.00000000) 
        (0.89279137 0.10280736 0.00000000) 
        (0.89736079 0.10098359 0.00000000) 
        (0.90189210 0.09913838 0.00000000) 
        (0.90638563 0.09727240 0.00000000) 
        (0.91084168 0.09538630 0.00000000) 
        (0.91526057 0.09348075 0.00000000) 
        (0.91964262 0.09155638 0.00000000) 
        (0.92398812 0.08961382 0.00000000) 
        (0.92829738 0.08765368 0.00000000) 
        (0.93257071 0.08567656 0.00000000) 
        (0.93680840 0.08368306 0.00000000) 
        (0.94101075 0.08167375 0.00000000) 
        (0.94517805 0.07964921 0.00000000) 
        (0.94931061 0.07760999 0.00000000) 
        (0.95340870 0.07555664 0.00000000) 
        (0.95747262 0.07348970 0.00000000) 
        (0.96150265 0.07140969 0.00000000) 
        (0.96549907 0.06931714 0.00000000) 
        (0.96946216 0.06721254 0.00000000) 
        (0.97339220 0.06509640 0.00000000) 
        (0.97728947 0.06296920 0.00000000) 
        (0.98115424 0.06083143 0.00000000) 
        (0.98498679 0.05868355 0.00000000) 
        (0.98878737 0.05652602 0.00000000) 
        (0.99255625 0.05435929 0.00000000) 
        (0.99629371 0.05218381 0.00000000) 
        (1.00000000 0.05000000 0.00000000) 
        ) 
    spline 4 5 ( 
        (0.00000000 -0.05000000 0.01000000) 
        (0.00031117 -0.05114473 0.01000000) 
        (0.00064195 -0.05196575 0.01000000) 
        (0.00099359 -0.05265201 0.01000000) 
        (0.00136739 -0.05326128 0.01000000) 
        (0.00176477 -0.05382021 0.01000000) 
        (0.00218719 -0.05434359 0.01000000) 
        (0.00263625 -0.05484060 0.01000000) 
        (0.00311362 -0.05531738 0.01000000) 
        (0.00362108 -0.05577820 0.01000000) 
        (0.00416053 -0.05622616 0.01000000) 
        (0.00473400 -0.05666360 0.01000000) 
        (0.00534362 -0.05709227 0.01000000) 
        (0.00599168 -0.05751350 0.01000000) 
        (0.00668059 -0.05792833 0.01000000) 
        (0.00741293 -0.05833754 0.01000000) 
        (0.00819144 -0.05874172 0.01000000) 
        (0.00901904 -0.05914128 0.01000000) 
        (0.00989881 -0.05953712 0.01000000) 
        (0.01083404 -0.05992933 0.01000000) 
        (0.01182824 -0.06031691 0.01000000) 
        (0.01288512 -0.06069928 0.01000000) 
        (0.01400863 -0.06107649 0.01000000) 
        (0.01520296 -0.06144947 0.01000000) 
        (0.01647260 -0.06181852 0.01000000) 
        (0.01782228 -0.06218254 0.01000000) 
        (0.01925705 -0.06254066 0.01000000) 
        (0.02078228 -0.06289244 0.01000000) 
        (0.02240366 -0.06323733 0.01000000) 
        (0.02412726 -0.06357422 0.01000000) 
        (0.02595953 -0.06390242 0.01000000) 
        (0.02790731 -0.06422129 0.01000000) 
        (0.02997790 -0.06452950 0.01000000) 
        (0.03217902 -0.06482598 0.01000000) 
        (0.03451891 -0.06510944 0.01000000) 
        (0.03700632 -0.06537845 0.01000000) 
        (0.03965054 -0.06563158 0.01000000) 
        (0.04246148 -0.06586713 0.01000000) 
        (0.04544962 -0.06608333 0.01000000) 
        (0.04862616 -0.06627825 0.01000000) 
        (0.05200296 -0.06644978 0.01000000) 
        (0.05559265 -0.06659570 0.01000000) 
        (0.05940865 -0.06671357 0.01000000) 
        (0.06346523 -0.06680077 0.01000000) 
        (0.06777756 -0.06685450 0.01000000) 
        (0.07236176 -0.06687177 0.01000000) 
        (0.07723497 -0.06684936 0.01000000) 
        (0.08241541 -0.06678384 0.01000000) 
        (0.08792245 -0.06667153 0.01000000) 
        (0.09377669 -0.06650855 0.01000000) 
        (0.10000000 -0.06629075 0.01000000) 
        (0.10400000 -0.06612856 0.01000000) 
        (0.10800000 -0.06595026 0.01000000) 
        (0.11200000 -0.06575679 0.01000000) 
        (0.11600000 -0.06554902 0.01000000) 
        (0.12000000 -0.06532775 0.01000000) 
        (0.12400000 -0.06509372 0.01000000) 
        (0.12800000 -0.06484760 0.01000000) 
        (0.13200000 -0.06459003 0.01000000) 
        (0.13600000 -0.06432159 0.01000000) 
        (0.14000000 -0.06404283 0.01000000) 
        (0.14400000 -0.06375427 0.01000000) 
        (0.14800000 -0.06345637 0.01000000) 
        (0.15200000 -0.06314959 0.01000000) 
        (0.15600000 -0.06283436 0.01000000) 
        (0.16000000 -0.06251106 0.01000000) 
        (0.16400000 -0.06218008 0.01000000) 
        (0.16800000 -0.06184177 0.01000000) 
        (0.17200000 -0.06149646 0.01000000) 
        (0.17600000 -0.06114449 0.01000000) 
        (0.18000000 -0.06078614 0.01000000) 
        (0.18400000 -0.06042171 0.01000000) 
        (0.18800000 -0.06005147 0.01000000) 
        (0.19200000 -0.05967569 0.01000000) 
        (0.19600000 -0.05929461 0.01000000) 
        (0.20000000 -0.05890848 0.01000000) 
        (0.20400000 -0.05851753 0.01000000) 
        (0.20800000 -0.05812197 0.01000000) 
        (0.21200000 -0.05772203 0.01000000) 
        (0.21600000 -0.05731789 0.01000000) 
        (0.22000000 -0.05690975 0.01000000) 
        (0.22400000 -0.05649781 0.01000000) 
        (0.22800000 -0.05608224 0.01000000) 
        (0.23200000 -0.05566322 0.01000000) 
        (0.23600000 -0.05524091 0.01000000) 
        (0.24000000 -0.05481549 0.01000000) 
        (0.24400000 -0.05438710 0.01000000) 
        (0.24800000 -0.05395589 0.01000000) 
        (0.25200000 -0.05352202 0.01000000) 
        (0.25600000 -0.05308563 0.01000000) 
        (0.26000000 -0.05264685 0.01000000) 
        (0.26400000 -0.05220582 0.01000000) 
        (0.26800000 -0.05176267 0.01000000) 
        (0.27200000 -0.05131752 0.01000000) 
        (0.27600000 -0.05087049 0.01000000) 
        (0.28000000 -0.05042171 0.01000000) 
        (0.28400000 -0.04997129 0.01000000) 
        (0.28800000 -0.04951934 0.01000000) 
        (0.29200000 -0.04906597 0.01000000) 
        (0.29600000 -0.04861129 0.01000000) 
        (0.30000000 -0.04815540 0.01000000) 
        (0.30454545 -0.04763600 0.01000000) 
        (0.30909091 -0.04711531 0.01000000) 
        (0.31363636 -0.04659348 0.01000000) 
        (0.31818182 -0.04607064 0.01000000) 
        (0.32272727 -0.04554692 0.01000000) 
        (0.32727273 -0.04502245 0.01000000) 
        (0.33181818 -0.04449735 0.01000000) 
        (0.33636364 -0.04397175 0.01000000) 
        (0.34090909 -0.04344577 0.01000000) 
        (0.34545455 -0.04291951 0.01000000) 
        (0.35000000 -0.04239311 0.01000000) 
        (0.35454545 -0.04186666 0.01000000) 
        (0.35909091 -0.04134027 0.01000000) 
        (0.36363636 -0.04081404 0.01000000) 
        (0.36818182 -0.04028809 0.01000000) 
        (0.37272727 -0.03976250 0.01000000) 
        (0.37727273 -0.03923738 0.01000000) 
        (0.38181818 -0.03871282 0.01000000) 
        (0.38636364 -0.03818892 0.01000000) 
        (0.39090909 -0.03766575 0.01000000) 
        (0.39545455 -0.03714342 0.01000000) 
        (0.40000000 -0.03662201 0.01000000) 
        (0.40454545 -0.03610160 0.01000000) 
        (0.40909091 -0.03558227 0.01000000) 
        (0.41363636 -0.03506411 0.01000000) 
        (0.41818182 -0.03454719 0.01000000) 
        (0.42272727 -0.03403160 0.01000000) 
        (0.42727273 -0.03351740 0.01000000) 
        (0.43181818 -0.03300467 0.01000000) 
        (0.43636364 -0.03249348 0.01000000) 
        (0.44090909 -0.03198390 0.01000000) 
        (0.44545455 -0.03147600 0.01000000) 
        (0.45000000 -0.03096985 0.01000000) 
        (0.45454545 -0.03046552 0.01000000) 
        (0.45909091 -0.02996306 0.01000000) 
        (0.46363636 -0.02946253 0.01000000) 
        (0.46818182 -0.02896401 0.01000000) 
        (0.47272727 -0.02846755 0.01000000) 
        (0.47727273 -0.02797321 0.01000000) 
        (0.48181818 -0.02748104 0.01000000) 