/*--------------------------------*- C++ -*----------------------------------*\
| =========                 |                                                 |
| \\      /  F ield         | OpenFOAM: The Open Source CFD Toolbox           |
|  \\    /   O peration     | Version:  5.x                                   |
|   \\  /    A nd           | Web:      www.OpenFOAM.org                      |
|    \\/     M anipulation  |                                                 |
\*---------------------------------------------------------------------------*/
FoamFile
{
    version     2.0;
    format      ascii;
    class       polyBoundaryMesh;
    location    "constant/polyMesh";
    object      boundary;
}
// * * * * * * * * * * * * * * * * * * * * * * * * * * * * * * * * * * * * * //

6
(
    inlet
    {
        type            patch;
        nFaces          108;
        startFace       63400;
    }
    outlet
    {
        type            patch;
        nFaces          108;
        startFace       63508;
    }
    wall
    {
        type            wall;
        inGroups        1(wall);
        nFaces          90;
        startFace       63616;
    }
    lower
    {
        type            patch;
        nFaces          275;
        startFace       63706;
    }
    upper
    {
        type            patch;
        nFaces          275;
        startFace       63981;
    }
    defaultFaces
    {
        type            empty;
        inGroups        1(empty);
        nFaces          63828;
        startFace       64256;
    }
)

// ************************************************************************* //
