/*--------------------------------*- C++ -*----------------------------------*\
| =========                 |                                                 |
| \\      /  F ield         | OpenFOAM: The Open Source CFD Toolbox           |
|  \\    /   O peration     | Version:  5.x                                   |
|   \\  /    A nd           | Web:      www.OpenFOAM.org                      |
|    \\/     M anipulation  |                                                 |
\*---------------------------------------------------------------------------*/
FoamFile
{
    version     2.0;
    format      ascii;
    class       polyBoundaryMesh;
    location    "constant/polyMesh";
    object      boundary;
}
// * * * * * * * * * * * * * * * * * * * * * * * * * * * * * * * * * * * * * //

4
(
    inlet
    {
        type            patch;
        nFaces          520;
        startFace       72990;
    }
    outlet
    {
        type            patch;
        nFaces          480;
        startFace       73510;
    }
    airfoil
    {
        type            patch;
        nFaces          220;
        startFace       73990;
    }
    frontAndBack
    {
        type            empty;
        inGroups        1(empty);
        nFaces          73600;
        startFace       74210;
    }
)

// ************************************************************************* //
