/*--------------------------------*- C++ -*----------------------------------*\
| =========                 |                                                 |
| \\      /  F ield         | OpenFOAM: The Open Source CFD Toolbox           |
|  \\    /   O peration     | Version:  5.x                                   |
|   \\  /    A nd           | Web:      www.OpenFOAM.org                      |
|    \\/     M anipulation  |                                                 |
\*---------------------------------------------------------------------------*/
FoamFile
{
    version     2.0;
    format      ascii;
    class       polyBoundaryMesh;
    location    "constant/polyMesh";
    object      boundary;
}
// * * * * * * * * * * * * * * * * * * * * * * * * * * * * * * * * * * * * * //

4
(
    inlet
    {
        type            patch;
        nFaces          220;
        startFace       33710;
    }
    outlet
    {
        type            patch;
        nFaces          220;
        startFace       33930;
    }
    airfoil
    {
        type            patch;
        nFaces          140;
        startFace       34150;
    }
    frontAndBack
    {
        type            empty;
        inGroups        1(empty);
        nFaces          34000;
        startFace       34290;
    }
)

// ************************************************************************* //
