/*--------------------------------*- C++ -*----------------------------------*\
| =========                 |                                                 |
| \\      /  F ield         | OpenFOAM: The Open Source CFD Toolbox           |
|  \\    /   O peration     | Version:  5                                     |
|   \\  /    A nd           | Web:      www.OpenFOAM.org                      |
|    \\/     M anipulation  |                                                 |
\*---------------------------------------------------------------------------*/
FoamFile
{
    version     2.0;
    format      ascii;
    class       dictionary;
    object      blockMeshDict;
}
// * * * * * * * * * * * * * * * * * * * * * * * * * * * * * * * * * * * * * //

x1  -3;
x2  2;
x3  10;
y1  -1;
y2  4;
z1  0.00;
z2  0.01;
Nx1 60;
Nx2 40;
Nx3 160;
Ny1 40;
Ny2 80;

convertToMeters 1;

vertices
(
	($x1	0.0		$z1)
	(0.0	0.0		$z1)
	(0.0	$y1		$z1)
	($x2	$y1		$z1)
	($x2	0.0		$z1)
	($x3	0.0		$z1)
	($x3	$y2		$z1)	
	($x2	$y2		$z1)
	(0.0	$y2		$z1)
	($x1	$y2		$z1)

	($x1	0.0		$z2)
	(0.0	0.0		$z2)
	(0.0	$y1		$z2)
	($x2	$y1		$z2)
	($x2	0.0		$z2)
	($x3	0.0		$z2)
	($x3	$y2		$z2)	
	($x2	$y2		$z2)
	(0.0	$y2		$z2)
	($x1	$y2		$z2)
);

blocks
(
    hex (0 1 8 9 10 11 18 19) ($Nx1 $Ny2 1) simpleGrading 		//block 0
    (
    	1
    	16
    	1
    )
    hex (1 4 7 8 11 14 17 18) ($Nx2 $Ny2 1) simpleGrading 		//block 1
    (
    	(
    		(0.1	0.2		16)
    		(0.8	0.6		1)
    		(0.1	0.2		0.0625)
    	)
    	16
    	1
    )
    hex (2 3 4 1 12 13 14 11) ($Nx2 $Ny1 1) simpleGrading 		//block 2
    (
    	(
    		(0.1	0.2		16)
    		(0.8	0.6		1)
    		(0.1	0.2		0.0625)
    	)
    	(
    		(0.1	0.2		5)
    		(0.8	0.6		1)
    		(0.1	0.2		0.2)
    	)
    	1
    )
    hex (4 5 6 7 14 15 16 17) ($Nx3 $Ny2 1) simpleGrading 		//block 3
	(
    	1
    	16
    	1
    )
);

edges
(
);

boundary
(

);

// ************************************************************************* //
